Circuit: *** SPICE deck for cell 3input_NOR_size1_2Cinv_0ps_sim{lay} from library DDII_P1-Std_Cell_Library

Limiting rise time of source va to 2e-009
Limiting fall time of source va to 2e-009
Direct Newton iteration for .op point succeeded.

tpdf=1.34142e-009 FROM 1e-009 TO 2.34142e-009
tpdr=1.41217e-010 FROM 2.3e-008 TO 2.31412e-008


Date: Wed Jul 08 21:25:34 2020
Total elapsed time: 0.437 seconds.

tnom = 27
temp = 27
method = modified trap
totiter = 4758
traniter = 4752
tranpoints = 1704
accept = 1490
rejected = 214
matrix size = 35
fillins = 0
solver = Normal
Matrix Compiler1: 3.39 KB object code size  1.1/0.6/[0.3]
Matrix Compiler2: 3.92 KB object code size  0.6/0.6/[0.4]


