Circuit: *** SPICE deck for cell 3input_NOR_size1_2Cinv_400ps_sim{lay} from library DDII_P1-Std_Cell_Library

Direct Newton iteration for .op point succeeded.

tpdf=1.01712e-009 FROM 2e-010 TO 1.21712e-009
tpdr=2.49147e-010 FROM 2.06e-008 TO 2.08491e-008


Date: Wed Jul 08 21:57:09 2020
Total elapsed time: 0.251 seconds.

tnom = 27
temp = 27
method = modified trap
totiter = 4815
traniter = 4809
tranpoints = 1753
accept = 1525
rejected = 228
matrix size = 35
fillins = 0
solver = Normal
Matrix Compiler1: 3.39 KB object code size  0.6/0.3/[0.2]
Matrix Compiler2: 3.92 KB object code size  0.3/0.9/[0.2]


