Circuit: *** SPICE deck for cell 3input_NOR_size1_1Cinv_800ps_sim{lay} from library DDII_P1-Std_Cell_Library

Direct Newton iteration for .op point succeeded.

tpdf=6.87091e-010 FROM 4e-010 TO 1.08709e-009
tpdr=1.08609e-010 FROM 2.12e-008 TO 2.13086e-008


Date: Wed Jul 08 21:58:54 2020
Total elapsed time: 0.414 seconds.

tnom = 27
temp = 27
method = modified trap
totiter = 4792
traniter = 4786
tranpoints = 1694
accept = 1474
rejected = 220
matrix size = 35
fillins = 0
solver = Normal
Matrix Compiler1: 3.39 KB object code size  2.8/1.4/[0.7]
Matrix Compiler2: 3.92 KB object code size  1.4/1.6/[0.8]


