Circuit: *** SPICE deck for cell 3input_NOR_size1_1Cinv_0ps_sim{lay} from library DDII_P1-Std_Cell_Library

Limiting rise time of source va to 2e-009
Limiting fall time of source va to 2e-009
Direct Newton iteration for .op point succeeded.

tpdf=9.94883e-010 FROM 1e-009 TO 1.99488e-009
tpdr=-3.28678e-011 FROM 2.3e-008 TO 2.29671e-008


Date: Wed Jul 08 21:24:51 2020
Total elapsed time: 0.555 seconds.

tnom = 27
temp = 27
method = modified trap
totiter = 4612
traniter = 4606
tranpoints = 1690
accept = 1502
rejected = 188
matrix size = 35
fillins = 0
solver = Normal
Matrix Compiler1: 3.39 KB object code size  1.7/0.8/[0.5]
Matrix Compiler2: 3.92 KB object code size  0.9/1.0/[0.6]


