Circuit: *** SPICE deck for cell 3input_NOR_size1_2Cinv_100ps_sim{lay} from library DDII_P1-Std_Cell_Library

Direct Newton iteration for .op point succeeded.

tpdf=9.73346e-010 FROM 5e-011 TO 1.02335e-009
tpdr=2.66613e-010 FROM 2.015e-008 TO 2.04166e-008


Date: Wed Jul 08 21:27:18 2020
Total elapsed time: 0.774 seconds.

tnom = 27
temp = 27
method = modified trap
totiter = 4629
traniter = 4623
tranpoints = 1958
accept = 1680
rejected = 278
matrix size = 35
fillins = 0
solver = Normal
Matrix Compiler1: 3.39 KB object code size  2.4/1.2/[0.7]
Matrix Compiler2: 3.92 KB object code size  1.5/1.4/[0.7]


