Circuit: *** SPICE deck for cell 3input_NOR_size1_4Cinv_100ps_sim{lay} from library DDII_P1-Std_Cell_Library

Direct Newton iteration for .op point succeeded.

tpdf=1.7938e-009 FROM 5e-011 TO 1.8438e-009
tpdr=5.04107e-010 FROM 2.015e-008 TO 2.06541e-008


Date: Wed Jul 08 21:26:59 2020
Total elapsed time: 0.403 seconds.

tnom = 27
temp = 27
method = modified trap
totiter = 4253
traniter = 4247
tranpoints = 1827
accept = 1587
rejected = 240
matrix size = 35
fillins = 0
solver = Normal
Matrix Compiler1: 3.39 KB object code size  0.8/0.4/[0.2]
Matrix Compiler2: 3.92 KB object code size  0.4/0.4/[0.2]


