Circuit: *** SPICE deck for cell 3input_NOR_size1_8Cinv_0ps_sim{lay} from library DDII_P1-Std_Cell_Library

Limiting rise time of source va to 2e-009
Limiting fall time of source va to 2e-009
Direct Newton iteration for .op point succeeded.

tpdf=3.69649e-009 FROM 1e-009 TO 4.69649e-009
tpdr=9.00704e-010 FROM 2.3e-008 TO 2.39007e-008


Date: Wed Jul 08 21:26:21 2020
Total elapsed time: 0.447 seconds.

tnom = 27
temp = 27
method = modified trap
totiter = 4170
traniter = 4164
tranpoints = 1522
accept = 1375
rejected = 147
matrix size = 35
fillins = 0
solver = Normal
Matrix Compiler1: 3.39 KB object code size  2.2/1.1/[0.6]
Matrix Compiler2: 3.92 KB object code size  1.1/1.4/[0.7]


