Circuit: *** SPICE deck for cell 3input_NOR_size1_2Cinv_800ps_sim{lay} from library DDII_P1-Std_Cell_Library

Direct Newton iteration for .op point succeeded.

tpdf=1.08423e-009 FROM 4e-010 TO 1.48423e-009
tpdr=2.40405e-010 FROM 2.12e-008 TO 2.14404e-008


Date: Wed Jul 08 21:58:37 2020
Total elapsed time: 0.428 seconds.

tnom = 27
temp = 27
method = modified trap
totiter = 4703
traniter = 4697
tranpoints = 1657
accept = 1437
rejected = 220
matrix size = 35
fillins = 0
solver = Normal
Matrix Compiler1: 3.39 KB object code size  2.4/1.1/[0.6]
Matrix Compiler2: 3.92 KB object code size  1.2/1.4/[0.7]


