Circuit: *** SPICE deck for cell 3input_NOR_size1_4Cinv_400ps_sim{lay} from library DDII_P1-Std_Cell_Library

Direct Newton iteration for .op point succeeded.

tpdf=1.82407e-009 FROM 2e-010 TO 2.02407e-009
tpdr=4.86928e-010 FROM 2.06e-008 TO 2.10869e-008


Date: Wed Jul 08 21:57:26 2020
Total elapsed time: 0.452 seconds.

tnom = 27
temp = 27
method = modified trap
totiter = 4748
traniter = 4742
tranpoints = 1856
accept = 1594
rejected = 262
matrix size = 35
fillins = 0
solver = Normal
Matrix Compiler1: 3.39 KB object code size  1.8/0.9/[0.5]
Matrix Compiler2: 3.92 KB object code size  0.9/1.0/[0.5]


