Circuit: *** SPICE deck for cell 3input_NOR_size1_8Cinv_400ps_sim{lay} from library DDII_P1-Std_Cell_Library

Direct Newton iteration for .op point succeeded.

tpdf=3.46021e-009 FROM 2e-010 TO 3.66021e-009
tpdr=9.74296e-010 FROM 2.06e-008 TO 2.15743e-008


Date: Wed Jul 08 21:57:46 2020
Total elapsed time: 0.348 seconds.

tnom = 27
temp = 27
method = modified trap
totiter = 4726
traniter = 4720
tranpoints = 1764
accept = 1533
rejected = 231
matrix size = 35
fillins = 0
solver = Normal
Matrix Compiler1: 3.39 KB object code size  1.8/0.8/[0.5]
Matrix Compiler2: 3.92 KB object code size  0.9/1.0/[0.5]


