Circuit: *** SPICE deck for cell 3input_NOR_size1_4Cinv_800ps_sim{lay} from library DDII_P1-Std_Cell_Library

Direct Newton iteration for .op point succeeded.

tpdf=1.88151e-009 FROM 4e-010 TO 2.28151e-009
tpdr=4.66806e-010 FROM 2.12e-008 TO 2.16668e-008


Date: Wed Jul 08 21:58:20 2020
Total elapsed time: 0.419 seconds.

tnom = 27
temp = 27
method = modified trap
totiter = 4761
traniter = 4755
tranpoints = 1730
accept = 1513
rejected = 217
matrix size = 35
fillins = 0
solver = Normal
Matrix Compiler1: 3.39 KB object code size  1.7/0.8/[0.4]
Matrix Compiler2: 3.92 KB object code size  0.9/0.9/[0.5]


