Circuit: *** SPICE deck for cell 3input_NOR_size1_1Cinv_100ps_sim{lay} from library DDII_P1-Std_Cell_Library

Direct Newton iteration for .op point succeeded.

tpdf=5.57007e-010 FROM 5e-011 TO 6.07007e-010
tpdr=1.44074e-010 FROM 2.015e-008 TO 2.02941e-008


Date: Wed Jul 08 21:27:35 2020
Total elapsed time: 0.539 seconds.

tnom = 27
temp = 27
method = modified trap
totiter = 4824
traniter = 4818
tranpoints = 1998
accept = 1721
rejected = 277
matrix size = 35
fillins = 0
solver = Normal
Matrix Compiler1: 3.39 KB object code size  2.3/1.0/[0.6]
Matrix Compiler2: 3.92 KB object code size  1.1/1.2/[0.6]


