Circuit: *** SPICE deck for cell 3input_NOR_size1_8Cinv_100ps_sim{lay} from library DDII_P1-Std_Cell_Library

Direct Newton iteration for .op point succeeded.

tpdf=3.43064e-009 FROM 5e-011 TO 3.48064e-009
tpdr=9.89129e-010 FROM 2.015e-008 TO 2.11391e-008


Date: Wed Jul 08 21:26:41 2020
Total elapsed time: 0.409 seconds.

tnom = 27
temp = 27
method = modified trap
totiter = 4094
traniter = 4088
tranpoints = 1715
accept = 1533
rejected = 182
matrix size = 35
fillins = 0
solver = Normal
Matrix Compiler1: 3.39 KB object code size  2.4/1.2/[0.6]
Matrix Compiler2: 3.92 KB object code size  1.3/1.4/[0.7]


