Circuit: *** SPICE deck for cell 3input_NOR_size1_4Cinv_0ps_sim{lay} from library DDII_P1-Std_Cell_Library

Limiting rise time of source va to 2e-009
Limiting fall time of source va to 2e-009
Direct Newton iteration for .op point succeeded.

tpdf=2.11285e-009 FROM 1e-009 TO 3.11285e-009
tpdr=4.25393e-010 FROM 2.3e-008 TO 2.34254e-008


Date: Wed Jul 08 21:26:04 2020
Total elapsed time: 0.477 seconds.

tnom = 27
temp = 27
method = modified trap
totiter = 4256
traniter = 4250
tranpoints = 1559
accept = 1386
rejected = 173
matrix size = 35
fillins = 0
solver = Normal
Matrix Compiler1: 3.39 KB object code size  2.5/1.3/[0.7]
Matrix Compiler2: 3.92 KB object code size  1.3/1.6/[0.9]


