Circuit: *** SPICE deck for cell 3input_NOR_size1_1Cinv_400ps_sim{lay} from library DDII_P1-Std_Cell_Library

Direct Newton iteration for .op point succeeded.

tpdf=6.03531e-010 FROM 2e-010 TO 8.03531e-010
tpdr=1.3355e-010 FROM 2.06e-008 TO 2.07335e-008


Date: Wed Jul 08 21:56:45 2020
Total elapsed time: 0.490 seconds.

tnom = 27
temp = 27
method = modified trap
totiter = 4880
traniter = 4874
tranpoints = 1871
accept = 1603
rejected = 268
matrix size = 35
fillins = 0
solver = Normal
Matrix Compiler1: 3.39 KB object code size  0.6/0.3/[0.2]
Matrix Compiler2: 3.92 KB object code size  0.3/0.3/[0.2]


