Circuit: *** SPICE deck for cell 3input_NOR_size1_8Cinv_800ps_sim{lay} from library DDII_P1-Std_Cell_Library

Direct Newton iteration for .op point succeeded.

tpdf=3.50729e-009 FROM 4e-010 TO 3.90729e-009
tpdr=9.46462e-010 FROM 2.12e-008 TO 2.21465e-008


Date: Wed Jul 08 21:58:02 2020
Total elapsed time: 0.444 seconds.

tnom = 27
temp = 27
method = modified trap
totiter = 4430
traniter = 4424
tranpoints = 1596
accept = 1426
rejected = 170
matrix size = 35
fillins = 0
solver = Normal
Matrix Compiler1: 3.39 KB object code size  2.7/1.3/[0.7]
Matrix Compiler2: 3.92 KB object code size  1.4/1.4/[0.7]


