Circuit: *** SPICE deck for cell function_6_size1_2Cinv_400ps_tpdf_sim{lay} from library DDII_P1-Std_Cell_Library

Direct Newton iteration for .op point succeeded.

tpdf=7.1962e-010 FROM 2e-010 TO 9.1962e-010


Date: Wed Jul 08 10:45:46 2020
Total elapsed time: 0.286 seconds.

tnom = 27
temp = 27
method = modified trap
totiter = 4585
traniter = 4569
tranpoints = 1764
accept = 1555
rejected = 209
matrix size = 73
fillins = 2
solver = Normal
Matrix Compiler1: 8.67 KB object code size  1.4/0.7/[0.4]
Matrix Compiler2: 9.16 KB object code size  0.7/0.8/[0.4]


