Circuit: *** SPICE deck for cell function_6_size1_1Cinv_100ps_tpdf_sim{lay} from library DDII_P1-Std_Cell_Library

Direct Newton iteration for .op point succeeded.

tpdf=4.09499e-010 FROM 5e-011 TO 4.59499e-010


Date: Wed Jul 08 10:43:01 2020
Total elapsed time: 0.306 seconds.

tnom = 27
temp = 27
method = modified trap
totiter = 4846
traniter = 4830
tranpoints = 1929
accept = 1672
rejected = 257
matrix size = 73
fillins = 2
solver = Normal
Matrix Compiler1: 8.67 KB object code size  1.4/0.7/[0.4]
Matrix Compiler2: 9.16 KB object code size  0.7/0.8/[0.4]


