Circuit: *** SPICE deck for cell function_6_size1_8Cinv_100ps_tpdf_sim{lay} from library DDII_P1-Std_Cell_Library

Direct Newton iteration for .op point succeeded.

tpdf=2.3053e-009 FROM 5e-011 TO 2.3553e-009


Date: Wed Jul 08 10:39:57 2020
Total elapsed time: 0.273 seconds.

tnom = 27
temp = 27
method = modified trap
totiter = 4353
traniter = 4337
tranpoints = 1824
accept = 1598
rejected = 226
matrix size = 73
fillins = 2
solver = Normal
Matrix Compiler1: 8.67 KB object code size  1.4/0.7/[0.4]
Matrix Compiler2: 9.16 KB object code size  0.7/0.8/[0.4]


