Circuit: *** SPICE deck for cell function_6_size1_1Cinv_800ps_tpdf_sim{lay} from library DDII_P1-Std_Cell_Library

Direct Newton iteration for .op point succeeded.

tpdf=5.30066e-010 FROM 4e-010 TO 9.30066e-010


Date: Wed Jul 08 10:47:48 2020
Total elapsed time: 0.282 seconds.

tnom = 27
temp = 27
method = modified trap
totiter = 4525
traniter = 4509
tranpoints = 1748
accept = 1532
rejected = 216
matrix size = 73
fillins = 2
solver = Normal
Matrix Compiler1: 8.67 KB object code size  1.4/0.7/[0.5]
Matrix Compiler2: 9.16 KB object code size  0.7/0.9/[0.4]


