Circuit: *** SPICE deck for cell function_6_size1_8Cinv_800ps_tpdf_sim{lay} from library DDII_P1-Std_Cell_Library

Direct Newton iteration for .op point succeeded.

tpdf=2.37263e-009 FROM 4e-010 TO 2.77263e-009


Date: Wed Jul 08 10:46:49 2020
Total elapsed time: 0.266 seconds.

tnom = 27
temp = 27
method = modified trap
totiter = 4245
traniter = 4229
tranpoints = 1678
accept = 1489
rejected = 189
matrix size = 73
fillins = 2
solver = Normal
Matrix Compiler1: 8.67 KB object code size  1.3/0.7/[0.5]
Matrix Compiler2: 9.16 KB object code size  0.7/0.8/[0.4]


