Circuit: *** SPICE deck for cell function_6_size1_8Cinv_0ps_tpdf_sim{lay} from library DDII_P1-Std_Cell_Library

Limiting rise time of source vx to 2e-009
Limiting fall time of source vx to 2e-009
Direct Newton iteration for .op point succeeded.

tpdf=2.56104e-009 FROM 1e-009 TO 3.56104e-009


Date: Wed Jul 08 10:39:34 2020
Total elapsed time: 0.260 seconds.

tnom = 27
temp = 27
method = modified trap
totiter = 4102
traniter = 4086
tranpoints = 1473
accept = 1344
rejected = 129
matrix size = 73
fillins = 2
solver = Normal
Matrix Compiler1: 8.67 KB object code size  1.3/0.7/[0.5]
Matrix Compiler2: 9.16 KB object code size  0.7/0.7/[0.5]


