Circuit: *** SPICE deck for cell function_6_size1_2Cinv_800ps_tpdf_sim{lay} from library DDII_P1-Std_Cell_Library

Direct Newton iteration for .op point succeeded.

tpdf=7.8373e-010 FROM 4e-010 TO 1.18373e-009


Date: Wed Jul 08 10:47:30 2020
Total elapsed time: 0.284 seconds.

tnom = 27
temp = 27
method = modified trap
totiter = 4602
traniter = 4586
tranpoints = 1780
accept = 1572
rejected = 208
matrix size = 73
fillins = 2
solver = Normal
Matrix Compiler1: 8.67 KB object code size  2.4/0.7/[0.4]
Matrix Compiler2: 9.16 KB object code size  0.9/0.8/[0.4]


