Circuit: *** SPICE deck for cell function_6_size1_4Cinv_800ps_tpdf_sim{lay} from library DDII_P1-Std_Cell_Library

Direct Newton iteration for .op point succeeded.

tpdf=1.31883e-009 FROM 4e-010 TO 1.71883e-009


Date: Wed Jul 08 10:47:11 2020
Total elapsed time: 0.273 seconds.

tnom = 27
temp = 27
method = modified trap
totiter = 4343
traniter = 4327
tranpoints = 1595
accept = 1432
rejected = 163
matrix size = 73
fillins = 2
solver = Normal
Matrix Compiler1: 8.67 KB object code size  1.4/0.7/[0.4]
Matrix Compiler2: 9.16 KB object code size  0.7/0.8/[0.5]


