Circuit: *** SPICE deck for cell function_6_size1_1Cinv_400ps_tpdf_sim{lay} from library DDII_P1-Std_Cell_Library

Direct Newton iteration for .op point succeeded.

tpdf=4.49268e-010 FROM 2e-010 TO 6.49268e-010


Date: Wed Jul 08 10:45:19 2020
Total elapsed time: 0.268 seconds.

tnom = 27
temp = 27
method = modified trap
totiter = 4229
traniter = 4213
tranpoints = 1739
accept = 1538
rejected = 201
matrix size = 73
fillins = 2
solver = Normal
Matrix Compiler1: 8.67 KB object code size  1.3/0.7/[0.4]
Matrix Compiler2: 9.16 KB object code size  0.7/0.7/[0.4]


