Circuit: *** SPICE deck for cell function_6_size1_2Cinv_100ps_tpdf_sim{lay} from library DDII_P1-Std_Cell_Library

Direct Newton iteration for .op point succeeded.

tpdf=6.88334e-010 FROM 5e-011 TO 7.38334e-010


Date: Wed Jul 08 10:42:38 2020
Total elapsed time: 0.285 seconds.

tnom = 27
temp = 27
method = modified trap
totiter = 4646
traniter = 4630
tranpoints = 1922
accept = 1690
rejected = 232
matrix size = 73
fillins = 2
solver = Normal
Matrix Compiler1: 8.67 KB object code size  1.4/0.7/[0.4]
Matrix Compiler2: 9.16 KB object code size  0.7/1.0/[0.4]


