Circuit: *** SPICE deck for cell function_6_size1_4Cinv_100ps_tpdf_sim{lay} from library DDII_P1-Std_Cell_Library

Direct Newton iteration for .op point succeeded.

tpdf=1.24288e-009 FROM 5e-011 TO 1.29288e-009


Date: Wed Jul 08 10:40:22 2020
Total elapsed time: 0.277 seconds.

tnom = 27
temp = 27
method = modified trap
totiter = 4391
traniter = 4375
tranpoints = 1837
accept = 1598
rejected = 239
matrix size = 73
fillins = 2
solver = Normal
Matrix Compiler1: 8.67 KB object code size  1.3/0.7/[0.4]
Matrix Compiler2: 9.16 KB object code size  0.7/0.7/[0.4]


