Circuit: *** SPICE deck for cell function_6_size1_1Cinv_0ps_tpdf_sim{lay} from library DDII_P1-Std_Cell_Library

Limiting rise time of source vx to 2e-009
Limiting fall time of source vx to 2e-009
Direct Newton iteration for .op point succeeded.

tpdf=8.23758e-010 FROM 1e-009 TO 1.82376e-009


Date: Wed Jul 08 10:38:18 2020
Total elapsed time: 0.288 seconds.

tnom = 27
temp = 27
method = modified trap
totiter = 4738
traniter = 4722
tranpoints = 1685
accept = 1490
rejected = 195
matrix size = 73
fillins = 2
solver = Normal
Matrix Compiler1: 8.67 KB object code size  1.4/0.7/[0.4]
Matrix Compiler2: 9.16 KB object code size  0.7/0.8/[0.4]


