Circuit: *** SPICE deck for cell function_6_size1_4Cinv_400ps_tpdf_sim{lay} from library DDII_P1-Std_Cell_Library

Direct Newton iteration for .op point succeeded.

tpdf=1.26536e-009 FROM 2e-010 TO 1.46536e-009


Date: Wed Jul 08 10:46:06 2020
Total elapsed time: 0.291 seconds.

tnom = 27
temp = 27
method = modified trap
totiter = 4612
traniter = 4596
tranpoints = 1780
accept = 1548
rejected = 232
matrix size = 73
fillins = 2
solver = Normal
Matrix Compiler1: 8.67 KB object code size  1.4/0.7/[0.4]
Matrix Compiler2: 9.16 KB object code size  0.7/0.7/[0.4]


