Circuit: *** SPICE deck for cell inverter_size2_1Cinv_100ps_sim{lay} from library DDII_P1-Std_Cell_Library

Direct Newton iteration for .op point succeeded.

tpdf=8.53784e-010 FROM 5e-011 TO 9.03784e-010
tpdr=2.88591e-010 FROM 2.015e-008 TO 2.04386e-008


Date: Wed Jul 08 20:29:10 2020
Total elapsed time: 0.195 seconds.

tnom = 27
temp = 27
method = modified trap
totiter = 3728
traniter = 3722
tranpoints = 1733
accept = 1522
rejected = 211
matrix size = 13
fillins = 0
solver = Normal
Matrix Compiler1: 960 bytes object code size  0.2/0.1/[0.1]
Matrix Compiler2: 1.31 KB object code size  0.1/0.1/[0.1]


