Circuit: *** SPICE deck for cell inverter_size2_1Cinv_100ps_sim{lay} from library DDII_P1-Std_Cell_Library

Direct Newton iteration for .op point succeeded.

tpdf=2.35652e-010 FROM 5e-011 TO 2.85652e-010
tpdr=8.40354e-011 FROM 2.015e-008 TO 2.0234e-008


Date: Wed Jul 08 20:27:32 2020
Total elapsed time: 0.092 seconds.

tnom = 27
temp = 27
method = modified trap
totiter = 3987
traniter = 3981
tranpoints = 1806
accept = 1569
rejected = 237
matrix size = 13
fillins = 0
solver = Normal
Matrix Compiler1: 960 bytes object code size  0.2/0.1/[0.1]
Matrix Compiler2: 1.31 KB object code size  0.1/0.2/[0.1]


