Circuit: *** SPICE deck for cell inverter_size2_1Cinv_100ps_sim{lay} from library DDII_P1-Std_Cell_Library

Direct Newton iteration for .op point succeeded.

tpdf=4.38918e-010 FROM 5e-011 TO 4.88918e-010
tpdr=1.51996e-010 FROM 2.015e-008 TO 2.0302e-008


Date: Wed Jul 08 20:28:34 2020
Total elapsed time: 0.081 seconds.

tnom = 27
temp = 27
method = modified trap
totiter = 4002
traniter = 3996
tranpoints = 1859
accept = 1625
rejected = 234
matrix size = 13
fillins = 0
solver = Normal
Matrix Compiler1: 960 bytes object code size  0.5/0.1/[0.1]
Matrix Compiler2: 1.31 KB object code size  0.1/0.1/[0.1]


