Circuit: *** SPICE deck for cell inverter_size2_1Cinv_100ps_sim{lay} from library DDII_P1-Std_Cell_Library

Direct Newton iteration for .op point succeeded.

tpdf=1.64567e-009 FROM 5e-011 TO 1.69567e-009
tpdr=5.62606e-010 FROM 2.015e-008 TO 2.07126e-008


Date: Wed Jul 08 20:29:46 2020
Total elapsed time: 0.105 seconds.

tnom = 27
temp = 27
method = modified trap
totiter = 3755
traniter = 3749
tranpoints = 1763
accept = 1544
rejected = 219
matrix size = 13
fillins = 0
solver = Normal
Matrix Compiler1: 960 bytes object code size  0.2/0.1/[0.1]
Matrix Compiler2: 1.31 KB object code size  0.1/0.1/[0.1]


