Circuit: *** SPICE deck for cell function_4_size2_2Cinv_400ps_tpdr_sim{lay} from library DDII_P1-Std_Cell_Library

Direct Newton iteration for .op point succeeded.

tpdr=1.55428e-010 FROM 2.06e-008 TO 2.07554e-008


Date: Wed Jul 08 23:29:29 2020
Total elapsed time: 0.203 seconds.

tnom = 27
temp = 27
method = modified trap
totiter = 4583
traniter = 4576
tranpoints = 1896
accept = 1628
rejected = 268
matrix size = 46
fillins = 0
solver = Normal
Matrix Compiler1: 4.92 KB object code size  0.8/0.4/[0.3]
Matrix Compiler2: 5.43 KB object code size  0.4/0.5/[0.2]


