Circuit: *** SPICE deck for cell complexFn5_size4_4Cinv_100ps_tpdf{lay} from library NAND_gate

WARNING: Node F is floating.

WARNING: Less than two connections to node F.  This node is used by CLOAD.
Direct Newton iteration for .op point succeeded.

tpdf=1.05252e-010 FROM 5e-011 TO 1.55252e-010


Date: Wed Jul 08 15:02:58 2020
Total elapsed time: 0.416 seconds.

tnom = 27
temp = 27
method = modified trap
totiter = 5127
traniter = 5118
tranpoints = 1943
accept = 1737
rejected = 206
matrix size = 54
fillins = 0
solver = Normal
Matrix Compiler1: 6.38 KB object code size  1.2/0.6/[0.3]
Matrix Compiler2: 6.64 KB object code size  0.6/0.7/[0.3]


