Circuit: *** SPICE deck for cell complexFn5_size1_Cinv_400ps_tpdf{lay} from library NAND_gate

WARNING: Node F is floating.

WARNING: Less than two connections to node F.  This node is used by CLOAD.
Direct Newton iteration for .op point succeeded.

tpdf=1.54897e-010 FROM 2e-010 TO 3.54897e-010


Date: Wed Jul 08 03:41:51 2020
Total elapsed time: 0.324 seconds.

tnom = 27
temp = 27
method = modified trap
totiter = 4195
traniter = 4187
tranpoints = 1713
accept = 1524
rejected = 189
matrix size = 54
fillins = 0
solver = Normal
Matrix Compiler1: 6.38 KB object code size  1.9/1.2/[0.5]
Matrix Compiler2: 6.64 KB object code size  1.0/1.2/[0.6]


