Circuit: *** SPICE deck for cell complexFn5_size1_8Cinv_800ps_tpdf{lay} from library NAND_gate

WARNING: Node F is floating.

WARNING: Less than two connections to node F.  This node is used by CLOAD.
Direct Newton iteration for .op point succeeded.

tpdf=2.21331e-010 FROM 4e-010 TO 6.21331e-010


Date: Wed Jul 08 03:50:49 2020
Total elapsed time: 0.313 seconds.

tnom = 27
temp = 27
method = modified trap
totiter = 4672
traniter = 4664
tranpoints = 1667
accept = 1479
rejected = 188
matrix size = 54
fillins = 0
solver = Normal
Matrix Compiler1: 6.38 KB object code size  1.2/0.7/[0.5]
Matrix Compiler2: 6.64 KB object code size  0.6/1.0/[0.4]


