Circuit: *** SPICE deck for cell complexFn5_size1_8Cinv_100ps_tpdf{lay} from library NAND_gate

WARNING: Node F is floating.

WARNING: Less than two connections to node F.  This node is used by CLOAD.
Direct Newton iteration for .op point succeeded.

tpdf=1.12042e-010 FROM 5e-011 TO 1.62042e-010


Date: Wed Jul 08 03:51:59 2020
Total elapsed time: 0.386 seconds.

tnom = 27
temp = 27
method = modified trap
totiter = 4816
traniter = 4808
tranpoints = 1865
accept = 1624
rejected = 241
matrix size = 54
fillins = 0
solver = Normal
Matrix Compiler1: 6.38 KB object code size  1.1/0.6/[0.3]
Matrix Compiler2: 6.64 KB object code size  0.6/0.6/[0.3]


