Circuit: *** SPICE deck for cell complexFn5_size4_2Cinv_400ps_tpdf{lay} from library NAND_gate

WARNING: Node F is floating.

WARNING: Less than two connections to node F.  This node is used by CLOAD.
Direct Newton iteration for .op point succeeded.

tpdf=1.50806e-010 FROM 2e-010 TO 3.50806e-010


Date: Wed Jul 08 14:59:35 2020
Total elapsed time: 0.414 seconds.

tnom = 27
temp = 27
method = modified trap
totiter = 4523
traniter = 4514
tranpoints = 1849
accept = 1612
rejected = 237
matrix size = 54
fillins = 0
solver = Normal
Matrix Compiler1: 6.38 KB object code size  1.2/0.6/[0.3]
Matrix Compiler2: 6.64 KB object code size  0.6/0.6/[0.3]


