Circuit: *** SPICE deck for cell complexFn5_size4_Cinv_800ps_tpdf{lay} from library NAND_gate

WARNING: Node F is floating.

WARNING: Less than two connections to node F.  This node is used by CLOAD.
Direct Newton iteration for .op point succeeded.

tpdf=2.1747e-010 FROM 4e-010 TO 6.1747e-010


Date: Wed Jul 08 04:06:34 2020
Total elapsed time: 0.388 seconds.

tnom = 27
temp = 27
method = modified trap
totiter = 5144
traniter = 5135
tranpoints = 1917
accept = 1653
rejected = 264
matrix size = 54
fillins = 0
solver = Normal
Matrix Compiler1: 6.38 KB object code size  1.2/0.8/[0.3]
Matrix Compiler2: 6.64 KB object code size  0.7/0.7/[0.3]


