Circuit: *** SPICE deck for cell complexFn5_size1_4Cinv_0ps_tpdf{lay} from library NAND_gate

Limiting rise time of source vx to 2e-009
Limiting fall time of source vx to 2e-009
WARNING: Node F is floating.

WARNING: Less than two connections to node F.  This node is used by CLOAD.
Direct Newton iteration for .op point succeeded.

tpdf=4.04401e-010 FROM 1e-009 TO 1.4044e-009


Date: Wed Jul 08 03:47:43 2020
Total elapsed time: 0.419 seconds.

tnom = 27
temp = 27
method = modified trap
totiter = 4899
traniter = 4891
tranpoints = 1679
accept = 1502
rejected = 177
matrix size = 54
fillins = 0
solver = Normal
Matrix Compiler1:     357 opcodes  1.2/[0.6]/0.8
Matrix Compiler2: 6.64 KB object code size  0.6/0.6/[0.5]


