Circuit: *** SPICE deck for cell inverter_size1_1Cinv_100ps_sim{lay} from library DDII_P1-Std_Cell_Library

Direct Newton iteration for .op point succeeded.

tpdf=1.67825e-009 FROM 5e-011 TO 1.72825e-009
tpdr=5.63054e-010 FROM 2.015e-008 TO 2.07131e-008


Date: Wed Jul 08 20:47:35 2020
Total elapsed time: 0.086 seconds.

tnom = 27
temp = 27
method = modified trap
totiter = 3529
traniter = 3523
tranpoints = 1646
accept = 1471
rejected = 175
matrix size = 13
fillins = 0
solver = Normal
Matrix Compiler1: 960 bytes object code size  0.2/0.1/[0.1]
Matrix Compiler2: 1.31 KB object code size  0.2/0.2/[0.1]


