Circuit: *** SPICE deck for cell function_4_size2_4Cinv_800ps_tpdf_sim{lay} from library DDII_P1-Std_Cell_Library

Direct Newton iteration for .op point succeeded.

tpdf=7.99635e-010 FROM 4e-010 TO 1.19963e-009


Date: Wed Jul 08 23:21:47 2020
Total elapsed time: 0.188 seconds.

tnom = 27
temp = 27
method = modified trap
totiter = 4725
traniter = 4708
tranpoints = 1800
accept = 1579
rejected = 221
matrix size = 46
fillins = 0
solver = Normal
Matrix Compiler1: 4.92 KB object code size  0.8/0.4/[0.2]
Matrix Compiler2: 5.43 KB object code size  0.4/0.4/[0.2]


