Circuit: *** SPICE deck for cell inverter_size4_1Cinv_400ps_sim{lay} from library DDII_P1-Std_Cell_Library

Direct Newton iteration for .op point succeeded.

tpdf=4.73283e-010 FROM 2e-010 TO 6.73283e-010
tpdr=1.86916e-010 FROM 2.06e-008 TO 2.07869e-008


Date: Wed Jul 08 21:02:59 2020
Total elapsed time: 0.082 seconds.

tnom = 27
temp = 27
method = modified trap
totiter = 3986
traniter = 3980
tranpoints = 1797
accept = 1580
rejected = 217
matrix size = 13
fillins = 0
solver = Normal
Matrix Compiler1: 960 bytes object code size  0.2/0.1/[0.1]
Matrix Compiler2: 1.31 KB object code size  0.1/0.1/[0.1]


