Circuit: *** SPICE deck for cell function_6_size4_2Cinv_400ps_tpdf_sim{lay} from library DDII_P1-Std_Cell_Library

Direct Newton iteration for .op point succeeded.

tpdf=3.1157e-010 FROM 2e-010 TO 5.1157e-010


Date: Wed Jul 08 11:12:28 2020
Total elapsed time: 0.313 seconds.

tnom = 27
temp = 27
method = modified trap
totiter = 5491
traniter = 5474
tranpoints = 2134
accept = 1838
rejected = 296
matrix size = 73
fillins = 2
solver = Normal
Matrix Compiler1: 8.67 KB object code size  1.4/0.8/[0.4]
Matrix Compiler2: 9.16 KB object code size  0.7/0.7/[0.4]


