Circuit: *** SPICE deck for cell function_6_size4_4Cinv_800ps_tpdf_sim{lay} from library DDII_P1-Std_Cell_Library

Direct Newton iteration for .op point succeeded.

tpdf=5.25548e-010 FROM 4e-010 TO 9.25548e-010


Date: Wed Jul 08 11:13:54 2020
Total elapsed time: 0.312 seconds.

tnom = 27
temp = 27
method = modified trap
totiter = 5172
traniter = 5155
tranpoints = 2008
accept = 1750
rejected = 258
matrix size = 73
fillins = 2
solver = Normal
Matrix Compiler1: 8.67 KB object code size  1.4/0.8/[0.4]
Matrix Compiler2: 9.16 KB object code size  0.8/0.8/[0.4]


