Circuit: *** SPICE deck for cell function_6_size4_4Cinv_100ps_tpdf_sim{lay} from library DDII_P1-Std_Cell_Library

Direct Newton iteration for .op point succeeded.

tpdf=4.02232e-010 FROM 5e-011 TO 4.52232e-010


Date: Wed Jul 08 11:10:30 2020
Total elapsed time: 0.313 seconds.

tnom = 27
temp = 27
method = modified trap
totiter = 5104
traniter = 5087
tranpoints = 2140
accept = 1851
rejected = 289
matrix size = 73
fillins = 2
solver = Normal
Matrix Compiler1: 8.67 KB object code size  1.5/0.8/[0.4]
Matrix Compiler2: 9.16 KB object code size  0.8/0.8/[0.5]


