Circuit: *** SPICE deck for cell function_6_size4_4Cinv_0ps_tpdf_sim{lay} from library DDII_P1-Std_Cell_Library

Limiting rise time of source vx to 2e-009
Limiting fall time of source vx to 2e-009
Direct Newton iteration for .op point succeeded.

tpdf=8.15826e-010 FROM 1e-009 TO 1.81583e-009


Date: Wed Jul 08 11:09:10 2020
Total elapsed time: 0.314 seconds.

tnom = 27
temp = 27
method = modified trap
totiter = 5099
traniter = 5082
tranpoints = 1950
accept = 1691
rejected = 259
matrix size = 73
fillins = 2
solver = Normal
Matrix Compiler1: 8.67 KB object code size  1.4/0.7/[0.4]
Matrix Compiler2: 9.16 KB object code size  0.7/0.8/[0.4]


