Circuit: *** SPICE deck for cell function_6_size4_1Cinv_400ps_tpdf_sim{lay} from library DDII_P1-Std_Cell_Library

Direct Newton iteration for .op point succeeded.

tpdf=2.47861e-010 FROM 2e-010 TO 4.47861e-010


Date: Wed Jul 08 11:11:57 2020
Total elapsed time: 0.328 seconds.

tnom = 27
temp = 27
method = modified trap
totiter = 5198
traniter = 5181
tranpoints = 2081
accept = 1816
rejected = 265
matrix size = 73
fillins = 2
solver = Normal
Matrix Compiler1: 8.67 KB object code size  1.4/0.7/[0.4]
Matrix Compiler2: 9.16 KB object code size  0.7/0.8/[0.4]


