Circuit: *** SPICE deck for cell function_6_size4_2Cinv_100ps_tpdf_sim{lay} from library DDII_P1-Std_Cell_Library

Direct Newton iteration for .op point succeeded.

tpdf=2.63131e-010 FROM 5e-011 TO 3.13131e-010


Date: Wed Jul 08 11:10:48 2020
Total elapsed time: 0.314 seconds.

tnom = 27
temp = 27
method = modified trap
totiter = 5460
traniter = 5443
tranpoints = 2262
accept = 1932
rejected = 330
matrix size = 73
fillins = 2
solver = Normal
Matrix Compiler1: 8.67 KB object code size  1.4/0.7/[0.4]
Matrix Compiler2: 9.16 KB object code size  0.7/0.8/[0.4]


