Circuit: *** SPICE deck for cell function_6_size4_2Cinv_0ps_tpdf_sim{lay} from library DDII_P1-Std_Cell_Library

Limiting rise time of source vx to 2e-009
Limiting fall time of source vx to 2e-009
Direct Newton iteration for .op point succeeded.

tpdf=6.91979e-010 FROM 1e-009 TO 1.69198e-009


Date: Wed Jul 08 11:08:48 2020
Total elapsed time: 0.312 seconds.

tnom = 27
temp = 27
method = modified trap
totiter = 5223
traniter = 5206
tranpoints = 1985
accept = 1711
rejected = 274
matrix size = 73
fillins = 2
solver = Normal
Matrix Compiler1: 8.67 KB object code size  1.4/0.7/[0.4]
Matrix Compiler2: 9.16 KB object code size  0.7/0.7/[0.4]


