Circuit: *** SPICE deck for cell function_6_size4_8Cinv_100ps_tpdf_sim{lay} from library DDII_P1-Std_Cell_Library

Direct Newton iteration for .op point succeeded.

tpdf=6.71701e-010 FROM 5e-011 TO 7.21701e-010


Date: Wed Jul 08 11:10:11 2020
Total elapsed time: 0.313 seconds.

tnom = 27
temp = 27
method = modified trap
totiter = 5271
traniter = 5254
tranpoints = 2179
accept = 1861
rejected = 318
matrix size = 73
fillins = 2
solver = Normal
Matrix Compiler1: 8.67 KB object code size  1.4/0.7/[0.4]
Matrix Compiler2: 9.16 KB object code size  0.7/0.8/[0.4]


