Circuit: *** SPICE deck for cell function_6_size4_4Cinv_400ps_tpdf_sim{lay} from library DDII_P1-Std_Cell_Library

Direct Newton iteration for .op point succeeded.

tpdf=4.40401e-010 FROM 2e-010 TO 6.40401e-010


Date: Wed Jul 08 11:12:49 2020
Total elapsed time: 0.324 seconds.

tnom = 27
temp = 27
method = modified trap
totiter = 5466
traniter = 5449
tranpoints = 2135
accept = 1838
rejected = 297
matrix size = 73
fillins = 2
solver = Normal
Matrix Compiler1: 8.67 KB object code size  1.4/0.7/[0.4]
Matrix Compiler2: 9.16 KB object code size  0.7/0.7/[0.4]


