Circuit: *** SPICE deck for cell function_6_size4_1Cinv_100ps_tpdf_sim{lay} from library DDII_P1-Std_Cell_Library

Direct Newton iteration for .op point succeeded.

tpdf=1.92941e-010 FROM 5e-011 TO 2.42941e-010


Date: Wed Jul 08 11:11:29 2020
Total elapsed time: 0.312 seconds.

tnom = 27
temp = 27
method = modified trap
totiter = 5076
traniter = 5059
tranpoints = 2109
accept = 1815
rejected = 294
matrix size = 73
fillins = 2
solver = Normal
Matrix Compiler1: 8.67 KB object code size  1.4/0.8/[0.4]
Matrix Compiler2: 9.16 KB object code size  0.7/0.8/[0.5]


