Circuit: *** SPICE deck for cell function_6_size4_1Cinv_800ps_tpdf_sim{lay} from library DDII_P1-Std_Cell_Library

Direct Newton iteration for .op point succeeded.

tpdf=3.44529e-010 FROM 4e-010 TO 7.44529e-010


Date: Wed Jul 08 11:14:31 2020
Total elapsed time: 0.312 seconds.

tnom = 27
temp = 27
method = modified trap
totiter = 5483
traniter = 5466
tranpoints = 2078
accept = 1784
rejected = 294
matrix size = 73
fillins = 2
solver = Normal
Matrix Compiler1: 8.67 KB object code size  1.4/0.8/[0.4]
Matrix Compiler2: 9.16 KB object code size  0.7/0.7/[0.4]


