Circuit: *** SPICE deck for cell function_6_size4_8Cinv_800ps_tpdf_sim{lay} from library DDII_P1-Std_Cell_Library

Direct Newton iteration for .op point succeeded.

tpdf=7.73373e-010 FROM 4e-010 TO 1.17337e-009


Date: Wed Jul 08 11:13:36 2020
Total elapsed time: 0.287 seconds.

tnom = 27
temp = 27
method = modified trap
totiter = 5235
traniter = 5218
tranpoints = 2035
accept = 1763
rejected = 272
matrix size = 73
fillins = 2
solver = Normal
Matrix Compiler1: 8.67 KB object code size  1.4/0.7/[0.4]
Matrix Compiler2: 9.16 KB object code size  0.7/0.7/[0.5]


