Circuit: *** SPICE deck for cell function_6_size4_8Cinv_0ps_tpdf_sim{lay} from library DDII_P1-Std_Cell_Library

Limiting rise time of source vx to 2e-009
Limiting fall time of source vx to 2e-009
Direct Newton iteration for .op point succeeded.

tpdf=1.04903e-009 FROM 1e-009 TO 2.04903e-009


Date: Wed Jul 08 11:09:42 2020
Total elapsed time: 0.287 seconds.

tnom = 27
temp = 27
method = modified trap
totiter = 4870
traniter = 4853
tranpoints = 1940
accept = 1650
rejected = 290
matrix size = 73
fillins = 2
solver = Normal
Matrix Compiler1: 8.67 KB object code size  1.4/0.7/[0.4]
Matrix Compiler2: 9.16 KB object code size  0.7/0.8/[0.5]


