Circuit: *** SPICE deck for cell function_6_size4_8Cinv_400ps_tpdf_sim{lay} from library DDII_P1-Std_Cell_Library

Direct Newton iteration for .op point succeeded.

tpdf=7.04835e-010 FROM 2e-010 TO 9.04835e-010


Date: Wed Jul 08 11:13:11 2020
Total elapsed time: 0.305 seconds.

tnom = 27
temp = 27
method = modified trap
totiter = 5135
traniter = 5118
tranpoints = 2112
accept = 1806
rejected = 306
matrix size = 73
fillins = 2
solver = Normal
Matrix Compiler1: 8.67 KB object code size  1.4/0.7/[0.5]
Matrix Compiler2: 9.16 KB object code size  0.8/0.8/[0.5]


