Circuit: *** SPICE deck for cell function_4_size4_2Cinv_400ps_tpdr_sim{lay} from library DDII_P1-Std_Cell_Library

Direct Newton iteration for .op point succeeded.

tpdr=9.02109e-011 FROM 2.06e-008 TO 2.06902e-008


Date: Wed Jul 08 23:47:29 2020
Total elapsed time: 0.211 seconds.

tnom = 27
temp = 27
method = modified trap
totiter = 5016
traniter = 5009
tranpoints = 2048
accept = 1765
rejected = 283
matrix size = 46
fillins = 0
solver = Normal
Matrix Compiler1: 4.92 KB object code size  0.8/0.4/[0.3]
Matrix Compiler2: 5.43 KB object code size  0.4/0.5/[0.4]


