Circuit: *** SPICE deck for cell function_4_size4_2Cinv_800ps_tpdr_sim{lay} from library DDII_P1-Std_Cell_Library

Direct Newton iteration for .op point succeeded.

tpdr=7.2543e-011 FROM 2.12e-008 TO 2.12725e-008


Date: Wed Jul 08 23:49:09 2020
Total elapsed time: 0.188 seconds.

tnom = 27
temp = 27
method = modified trap
totiter = 4655
traniter = 4648
tranpoints = 1956
accept = 1695
rejected = 261
matrix size = 46
fillins = 0
solver = Normal
Matrix Compiler1: 4.92 KB object code size  0.8/0.4/[0.2]
Matrix Compiler2: 5.43 KB object code size  0.4/0.5/[0.3]


