Circuit: *** SPICE deck for cell function_4_size4_2Cinv_0ps_tpdr_sim{lay} from library DDII_P1-Std_Cell_Library

Limiting rise time of source vx to 2e-009
Limiting fall time of source vx to 2e-009
Direct Newton iteration for .op point succeeded.

tpdr=-3.17408e-011 FROM 2.3e-008 TO 2.29683e-008


Date: Wed Jul 08 23:44:32 2020
Total elapsed time: 0.219 seconds.

tnom = 27
temp = 27
method = modified trap
totiter = 5006
traniter = 4999
tranpoints = 1854
accept = 1584
rejected = 270
matrix size = 46
fillins = 0
solver = Normal
Matrix Compiler1: 4.92 KB object code size  0.8/0.4/[0.2]
Matrix Compiler2: 5.43 KB object code size  0.4/0.5/[0.3]


