Circuit: *** SPICE deck for cell inverter_size2_1Cinv_800ps_sim{lay} from library DDII_P1-Std_Cell_Library

Direct Newton iteration for .op point succeeded.

tpdf=9.38817e-010 FROM 4e-010 TO 1.33882e-009
tpdr=3.69549e-010 FROM 2.12e-008 TO 2.15695e-008


Date: Wed Jul 08 20:37:50 2020
Total elapsed time: 0.100 seconds.

tnom = 27
temp = 27
method = modified trap
totiter = 3620
traniter = 3614
tranpoints = 1635
accept = 1474
rejected = 161
matrix size = 13
fillins = 0
solver = Normal
Matrix Compiler1: 960 bytes object code size  0.2/0.1/[0.1]
Matrix Compiler2: 1.31 KB object code size  0.1/0.1/[0.1]


