Circuit: *** SPICE deck for cell inverter_size2_1Cinv_400ps_sim{lay} from library DDII_P1-Std_Cell_Library

Direct Newton iteration for .op point succeeded.

tpdf=1.73187e-009 FROM 4e-010 TO 2.13187e-009
tpdr=6.33402e-010 FROM 2.12e-008 TO 2.18334e-008


Date: Wed Jul 08 20:35:54 2020
Total elapsed time: 0.094 seconds.

tnom = 27
temp = 27
method = modified trap
totiter = 3566
traniter = 3560
tranpoints = 1660
accept = 1465
rejected = 195
matrix size = 13
fillins = 0
solver = Normal
Matrix Compiler1: 960 bytes object code size  0.2/0.2/[0.1]
Matrix Compiler2: 1.31 KB object code size  0.2/0.2/[0.1]


