Circuit: *** SPICE deck for cell inverter_size2_1Cinv_800ps_sim{lay} from library DDII_P1-Std_Cell_Library

Direct Newton iteration for .op point succeeded.

tpdf=3.5887e-010 FROM 4e-010 TO 7.58871e-010
tpdr=1.1537e-010 FROM 2.12e-008 TO 2.13154e-008


Date: Wed Jul 08 20:36:45 2020
Total elapsed time: 0.086 seconds.

tnom = 27
temp = 27
method = modified trap
totiter = 4070
traniter = 4064
tranpoints = 1766
accept = 1552
rejected = 214
matrix size = 13
fillins = 0
solver = Normal
Matrix Compiler1: 960 bytes object code size  0.2/0.1/[0.1]
Matrix Compiler2: 1.31 KB object code size  0.1/0.1/[0.1]


