Circuit: *** SPICE deck for cell NAND_size4_8Cinv_0ps{lay} from library NAND_gate

Limiting rise time of source va to 2e-009
Limiting fall time of source va to 2e-009
WARNING: Node F is floating.

WARNING: Less than two connections to node F.  This node is used by CLOAD.
Direct Newton iteration for .op point succeeded.

tpdr=2.2927e-008 FROM 0 TO 2.2927e-008
tpdf=1.66808e-010 FROM 1e-009 TO 1.16681e-009


Date: Wed Jul 08 02:17:12 2020
Total elapsed time: 0.400 seconds.

tnom = 27
temp = 27
method = modified trap
totiter = 4514
traniter = 4502
tranpoints = 1694
accept = 1486
rejected = 208
matrix size = 36
fillins = 0
solver = Normal
Matrix Compiler1: 3.45 KB object code size  0.6/0.3/[0.2]
Matrix Compiler2: 4.10 KB object code size  0.4/0.4/[0.3]


