Circuit: *** SPICE deck for cell NAND_gate_size4_Cinv_0ps_tpdf{lay} from library NAND_gate

Limiting rise time of source vx to 2e-009
Limiting fall time of source vx to 2e-009
WARNING: Node F is floating.

WARNING: Less than two connections to node F.  This node is used by CLOAD.
Direct Newton iteration for .op point succeeded.

tpdf=4.00112e-010 FROM 1e-009 TO 1.40011e-009


Date: Wed Jul 08 04:01:03 2020
Total elapsed time: 0.347 seconds.

tnom = 27
temp = 27
method = modified trap
totiter = 5106
traniter = 5097
tranpoints = 1845
accept = 1596
rejected = 249
matrix size = 54
fillins = 0
solver = Normal
Matrix Compiler1: 6.38 KB object code size  1.2/0.6/[0.4]
Matrix Compiler2: 6.64 KB object code size  0.6/0.7/[0.4]


