Circuit: *** SPICE deck for cell NAND_size1_2Cinv_100ps{lay} from library NAND_gate

WARNING: Node F is floating.

WARNING: Less than two connections to node F.  This node is used by CLOAD.
Direct Newton iteration for .op point succeeded.

tpdr=2.01645e-008 FROM 0 TO 2.01645e-008
tpdf=3.11759e-011 FROM 5e-011 TO 8.11759e-011


Date: Wed Jul 08 01:13:45 2020
Total elapsed time: 0.259 seconds.

tnom = 27
temp = 27
method = modified trap
totiter = 3949
traniter = 3937
tranpoints = 1641
accept = 1461
rejected = 180
matrix size = 36
fillins = 0
solver = Normal
Matrix Compiler1: 3.45 KB object code size  0.8/0.4/[0.2]
Matrix Compiler2: 4.10 KB object code size  0.4/0.9/[0.3]


