Circuit: *** SPICE deck for cell NAND_size2_4Cinv_400ps{lay} from library NAND_gate

WARNING: Node F is floating.

WARNING: Less than two connections to node F.  This node is used by CLOAD.
Direct Newton iteration for .op point succeeded.

tpdr=2.06077e-008 FROM 0 TO 2.06077e-008
tpdf=5.88052e-011 FROM 2e-010 TO 2.58805e-010


Date: Wed Jul 08 01:49:27 2020
Total elapsed time: 0.303 seconds.

tnom = 27
temp = 27
method = modified trap
totiter = 4196
traniter = 4184
tranpoints = 1632
accept = 1453
rejected = 179
matrix size = 36
fillins = 0
solver = Normal
Matrix Compiler1: 3.45 KB object code size  0.7/0.6/[0.3]
Matrix Compiler2: 4.10 KB object code size  0.5/0.7/[0.3]


