Circuit: *** SPICE deck for cell NAND_size2_8Cinv_800ps{lay} from library NAND_gate

WARNING: Node F is floating.

WARNING: Less than two connections to node F.  This node is used by CLOAD.
Direct Newton iteration for .op point succeeded.

tpdr=2.11895e-008 FROM 0 TO 2.11895e-008
tpdf=9.06403e-011 FROM 4e-010 TO 4.9064e-010


Date: Wed Jul 08 01:51:56 2020
Total elapsed time: 0.252 seconds.

tnom = 27
temp = 27
method = modified trap
totiter = 4510
traniter = 4498
tranpoints = 1686
accept = 1510
rejected = 176
matrix size = 36
fillins = 0
solver = Normal
Matrix Compiler1: 3.45 KB object code size  1.2/0.8/[0.3]
Matrix Compiler2: 4.10 KB object code size  0.7/1.0/[0.5]


