Circuit: *** SPICE deck for cell NAND_size4_2Cinv_400ps{lay} from library NAND_gate

WARNING: Node F is floating.

WARNING: Less than two connections to node F.  This node is used by CLOAD.
Direct Newton iteration for .op point succeeded.

tpdr=2.06067e-008 FROM 0 TO 2.06067e-008
tpdf=5.6692e-011 FROM 2e-010 TO 2.56692e-010


Date: Wed Jul 08 02:06:52 2020
Total elapsed time: 0.314 seconds.

tnom = 27
temp = 27
method = modified trap
totiter = 4117
traniter = 4105
tranpoints = 1698
accept = 1507
rejected = 191
matrix size = 36
fillins = 0
solver = Normal
Matrix Compiler1: 3.45 KB object code size  0.8/0.4/[0.2]
Matrix Compiler2: 4.10 KB object code size  0.4/0.7/[0.3]


