Circuit: *** SPICE deck for cell NAND_size1_4Cinv_400ps{lay} from library NAND_gate

WARNING: Node F is floating.

WARNING: Less than two connections to node F.  This node is used by CLOAD.
Direct Newton iteration for .op point succeeded.

tpdr=2.06022e-008 FROM 0 TO 2.06022e-008
tpdf=5.55777e-011 FROM 2e-010 TO 2.55578e-010


Date: Wed Jul 08 01:18:43 2020
Total elapsed time: 0.276 seconds.

tnom = 27
temp = 27
method = modified trap
totiter = 4256
traniter = 4244
tranpoints = 1561
accept = 1420
rejected = 141
matrix size = 36
fillins = 0
solver = Normal
Matrix Compiler1: 3.45 KB object code size  0.7/0.3/[0.2]
Matrix Compiler2: 4.10 KB object code size  0.4/0.4/[0.3]


