Circuit: *** SPICE deck for cell NAND_gate_size4{lay} from library NAND_gate

