Circuit: *** SPICE deck for cell NAND_size4_8Cinv_100ps{lay} from library NAND_gate

WARNING: Node F is floating.

WARNING: Less than two connections to node F.  This node is used by CLOAD.
Direct Newton iteration for .op point succeeded.

tpdr=2.01643e-008 FROM 0 TO 2.01643e-008
tpdf=2.89242e-011 FROM 5e-011 TO 7.89242e-011


Date: Wed Jul 08 02:16:20 2020
Total elapsed time: 0.230 seconds.

tnom = 27
temp = 27
method = modified trap
totiter = 4029
traniter = 4017
tranpoints = 1759
accept = 1578
rejected = 181
matrix size = 36
fillins = 0
solver = Normal
Matrix Compiler1: 3.45 KB object code size  0.7/0.4/[0.3]
Matrix Compiler2: 4.10 KB object code size  0.4/0.4/[0.3]


