Circuit: *** SPICE deck for cell inverter_size8_1Cinv_800ps_sim{lay} from library DDII_P1-Std_Cell_Library

Direct Newton iteration for .op point succeeded.

tpdf=3.57556e-010 FROM 4e-010 TO 7.57556e-010
tpdr=1.15879e-010 FROM 2.12e-008 TO 2.13159e-008


Date: Wed Jul 08 21:28:46 2020
Total elapsed time: 0.100 seconds.

tnom = 27
temp = 27
method = modified trap
totiter = 4297
traniter = 4291
tranpoints = 1927
accept = 1688
rejected = 239
matrix size = 13
fillins = 0
solver = Normal
Matrix Compiler1: 960 bytes object code size  0.2/0.1/[0.1]
Matrix Compiler2: 1.31 KB object code size  0.1/0.2/[0.1]


