Circuit: *** SPICE deck for cell inverter_size8_1Cinv_800ps_sim{lay} from library DDII_P1-Std_Cell_Library

Direct Newton iteration for .op point succeeded.

tpdf=5.41174e-010 FROM 4e-010 TO 9.41174e-010
tpdr=2.17464e-010 FROM 2.12e-008 TO 2.14175e-008


Date: Wed Jul 08 21:27:00 2020
Total elapsed time: 0.098 seconds.

tnom = 27
temp = 27
method = modified trap
totiter = 4118
traniter = 4112
tranpoints = 1830
accept = 1607
rejected = 223
matrix size = 13
fillins = 0
solver = Normal
Matrix Compiler1: 960 bytes object code size  0.2/0.1/[0.1]
Matrix Compiler2: 1.31 KB object code size  0.1/0.1/[0.1]


