Circuit: *** SPICE deck for cell function_4_size1_1Cinv_0ps_tpdf_sim{lay} from library DDII_P1-Std_Cell_Library

Limiting rise time of source vx to 2e-009
Limiting fall time of source vx to 2e-009
Direct Newton iteration for .op point succeeded.

tpdf=7.7993e-010 FROM 1e-009 TO 1.77993e-009


Date: Wed Jul 08 22:28:33 2020
Total elapsed time: 0.203 seconds.

tnom = 27
temp = 27
method = modified trap
totiter = 4772
traniter = 4755
tranpoints = 1766
accept = 1553
rejected = 213
matrix size = 46
fillins = 0
solver = Normal
Matrix Compiler1: 4.92 KB object code size  0.8/0.4/[0.2]
Matrix Compiler2: 5.43 KB object code size  0.4/0.5/[0.3]


