Circuit: *** SPICE deck for cell function_4_size1_2Cinv_800ps_tpdf_sim{lay} from library DDII_P1-Std_Cell_Library

Direct Newton iteration for .op point succeeded.

tpdf=8.19162e-010 FROM 4e-010 TO 1.21916e-009


Date: Wed Jul 08 22:32:41 2020
Total elapsed time: 0.191 seconds.

tnom = 27
temp = 27
method = modified trap
totiter = 4551
traniter = 4534
tranpoints = 1694
accept = 1501
rejected = 193
matrix size = 46
fillins = 0
solver = Normal
Matrix Compiler1: 4.92 KB object code size  0.8/0.4/[0.2]
Matrix Compiler2: 5.43 KB object code size  0.4/0.5/[0.3]


