Circuit: *** SPICE deck for cell function_4_size1_8Cinv_800ps_tpdf_sim{lay} from library DDII_P1-Std_Cell_Library

Direct Newton iteration for .op point succeeded.

tpdf=2.61198e-009 FROM 4e-010 TO 3.01198e-009


Date: Wed Jul 08 22:32:08 2020
Total elapsed time: 0.187 seconds.

tnom = 27
temp = 27
method = modified trap
totiter = 4020
traniter = 4003
tranpoints = 1463
accept = 1329
rejected = 134
matrix size = 46
fillins = 0
solver = Normal
Matrix Compiler1: 4.92 KB object code size  0.8/0.4/[0.2]
Matrix Compiler2: 5.43 KB object code size  0.4/0.5/[0.2]


