Circuit: *** SPICE deck for cell function_4_size1_4Cinv_400ps_tpdf_sim{lay} from library DDII_P1-Std_Cell_Library

Direct Newton iteration for .op point succeeded.

tpdf=1.3632e-009 FROM 2e-010 TO 1.5632e-009


Date: Wed Jul 08 22:31:36 2020
Total elapsed time: 0.194 seconds.

tnom = 27
temp = 27
method = modified trap
totiter = 4336
traniter = 4319
tranpoints = 1614
accept = 1422
rejected = 192
matrix size = 46
fillins = 0
solver = Normal
Matrix Compiler1: 4.92 KB object code size  0.8/0.4/[0.2]
Matrix Compiler2: 5.43 KB object code size  0.4/0.5/[0.3]


