Circuit: *** SPICE deck for cell function_4_size1_8Cinv_100ps_tpdf_sim{lay} from library DDII_P1-Std_Cell_Library

Direct Newton iteration for .op point succeeded.

tpdf=2.54249e-009 FROM 5e-011 TO 2.59249e-009


Date: Wed Jul 08 22:29:47 2020
Total elapsed time: 0.203 seconds.

tnom = 27
temp = 27
method = modified trap
totiter = 4153
traniter = 4136
tranpoints = 1621
accept = 1451
rejected = 170
matrix size = 46
fillins = 0
solver = Normal
Matrix Compiler1: 4.92 KB object code size  0.8/0.4/[0.2]
Matrix Compiler2: 5.43 KB object code size  0.4/0.5/[0.3]


