Circuit: *** SPICE deck for cell function_4_size1_2Cinv_100ps_tpdf_sim{lay} from library DDII_P1-Std_Cell_Library

Direct Newton iteration for .op point succeeded.

tpdf=7.16808e-010 FROM 5e-011 TO 7.66808e-010


Date: Wed Jul 08 22:30:30 2020
Total elapsed time: 0.224 seconds.

tnom = 27
temp = 27
method = modified trap
totiter = 5110
traniter = 5093
tranpoints = 1901
accept = 1655
rejected = 246
matrix size = 46
fillins = 0
solver = Normal
Matrix Compiler1: 4.92 KB object code size  0.8/0.4/[0.2]
Matrix Compiler2: 5.43 KB object code size  0.4/0.5/[0.3]


