Circuit: *** SPICE deck for cell function_6_size4_1Cinv_100ps_tpdr_sim{lay} from library DDII_P1-Std_Cell_Library

Direct Newton iteration for .op point succeeded.

tpdr=2.17746e-010 FROM 5e-011 TO 2.67746e-010


Date: Wed Jul 08 18:24:54 2020
Total elapsed time: 0.349 seconds.

tnom = 27
temp = 27
method = modified trap
totiter = 6109
traniter = 6084
tranpoints = 2246
accept = 1928
rejected = 318
matrix size = 73
fillins = 2
solver = Normal
Matrix Compiler1: 8.67 KB object code size  1.5/0.7/[0.4]
Matrix Compiler2: 9.16 KB object code size  0.6/0.7/[0.4]


