Circuit: *** SPICE deck for cell function_6_size4_1Cinv_100ps_tpdr_sim{lay} from library DDII_P1-Std_Cell_Library

Direct Newton iteration for .op point succeeded.

tpdr=2.9541e-010 FROM 5e-011 TO 3.4541e-010


Date: Wed Jul 08 18:25:44 2020
Total elapsed time: 0.377 seconds.

tnom = 27
temp = 27
method = modified trap
totiter = 6447
traniter = 6422
tranpoints = 2282
accept = 1957
rejected = 325
matrix size = 73
fillins = 2
solver = Normal
Matrix Compiler1: 8.67 KB object code size  1.4/0.7/[0.4]
Matrix Compiler2: 9.16 KB object code size  0.7/0.8/[0.4]


