Circuit: *** SPICE deck for cell function_6_size4_1Cinv_100ps_tpdr_sim{lay} from library DDII_P1-Std_Cell_Library

Direct Newton iteration for .op point succeeded.

tpdr=7.5383e-010 FROM 5e-011 TO 8.0383e-010


Date: Wed Jul 08 18:32:15 2020
Total elapsed time: 1.399 seconds.

tnom = 27
temp = 27
method = modified trap
totiter = 6270
traniter = 6245
tranpoints = 2265
accept = 1905
rejected = 360
matrix size = 73
fillins = 2
solver = Normal
Matrix Compiler1: 8.67 KB object code size  6.2/3.1/[1.7]
Matrix Compiler2: 9.16 KB object code size  3.2/3.5/[1.7]


