Circuit: *** SPICE deck for cell function_6_size4_1Cinv_100ps_tpdr_sim{lay} from library DDII_P1-Std_Cell_Library

Direct Newton iteration for .op point succeeded.

tpdr=4.48863e-010 FROM 5e-011 TO 4.98863e-010


Date: Wed Jul 08 18:26:35 2020
Total elapsed time: 0.362 seconds.

tnom = 27
temp = 27
method = modified trap
totiter = 6304
traniter = 6279
tranpoints = 2331
accept = 1957
rejected = 374
matrix size = 73
fillins = 2
solver = Normal
Matrix Compiler1: 8.67 KB object code size  1.3/0.7/[0.3]
Matrix Compiler2: 9.16 KB object code size  0.7/0.8/[0.6]


