Circuit: *** SPICE deck for cell function_6_size4_1Cinv_400ps_tpdr_sim{lay} from library DDII_P1-Std_Cell_Library

Direct Newton iteration for .op point succeeded.

tpdr=2.59274e-010 FROM 2e-010 TO 4.59274e-010


Date: Wed Jul 08 18:42:31 2020
Total elapsed time: 1.908 seconds.

tnom = 27
temp = 27
method = modified trap
totiter = 5661
traniter = 5636
tranpoints = 2055
accept = 1810
rejected = 245
matrix size = 73
fillins = 2
solver = Normal
Matrix Compiler1: 8.67 KB object code size  12.0/5.0/[2.4]
Matrix Compiler2: 9.16 KB object code size  3.9/6.2/[2.1]


