Circuit: *** SPICE deck for cell function_6_size4_1Cinv_400ps_tpdr_sim{lay} from library DDII_P1-Std_Cell_Library

Direct Newton iteration for .op point succeeded.

tpdr=3.29519e-010 FROM 2e-010 TO 5.29519e-010


Date: Wed Jul 08 18:43:39 2020
Total elapsed time: 1.373 seconds.

tnom = 27
temp = 27
method = modified trap
totiter = 6124
traniter = 6099
tranpoints = 2112
accept = 1832
rejected = 280
matrix size = 73
fillins = 2
solver = Normal
Matrix Compiler1: 8.67 KB object code size  4.2/2.3/[1.1]
Matrix Compiler2: 9.16 KB object code size  2.3/2.3/[2.1]


