Circuit: *** SPICE deck for cell function_6_size4_1Cinv_800ps_tpdr_sim{lay} from library DDII_P1-Std_Cell_Library

Direct Newton iteration for .op point succeeded.

tpdr=7.71332e-010 FROM 2e-010 TO 9.71332e-010


Date: Wed Jul 08 18:53:01 2020
Total elapsed time: 1.125 seconds.

tnom = 27
temp = 27
method = modified trap
totiter = 5974
traniter = 5949
tranpoints = 2118
accept = 1813
rejected = 305
matrix size = 73
fillins = 2
solver = Normal
Matrix Compiler1: 8.67 KB object code size  6.6/2.1/[0.8]
Matrix Compiler2: 9.16 KB object code size  2.1/2.3/[1.3]


