Circuit: *** SPICE deck for cell function_6_size1_1Cinv_100ps_tpdr_sim{lay} from library DDII_P1-Std_Cell_Library

Direct Newton iteration for .op point succeeded.

tpdr=2.6032e-009 FROM 5e-011 TO 2.6532e-009


Date: Wed Jul 08 17:06:12 2020
Total elapsed time: 0.302 seconds.

tnom = 27
temp = 27
method = modified trap
totiter = 4165
traniter = 4141
tranpoints = 1697
accept = 1518
rejected = 179
matrix size = 73
fillins = 2
solver = Normal
Matrix Compiler1: 8.67 KB object code size  1.3/0.7/[0.4]
Matrix Compiler2: 9.16 KB object code size  0.8/0.7/[0.5]


