Circuit: *** SPICE deck for cell function_4_size1_4Cinv_0ps_tpdr_sim{lay} from library DDII_P1-Std_Cell_Library

Limiting rise time of source vx to 2e-009
Limiting fall time of source vx to 2e-009
Direct Newton iteration for .op point succeeded.

tpdr=5.62745e-010 FROM 2.3e-008 TO 2.35627e-008


Date: Wed Jul 08 22:44:34 2020
Total elapsed time: 0.186 seconds.

tnom = 27
temp = 27
method = modified trap
totiter = 4181
traniter = 4174
tranpoints = 1576
accept = 1425
rejected = 151
matrix size = 46
fillins = 0
solver = Normal
Matrix Compiler1: 4.92 KB object code size  0.8/0.4/[0.2]
Matrix Compiler2: 5.43 KB object code size  0.4/0.5/[0.3]


