Circuit: *** SPICE deck for cell function_4_size1_4Cinv_800ps_tpdr_sim{lay} from library DDII_P1-Std_Cell_Library

Direct Newton iteration for .op point succeeded.

tpdr=5.29459e-010 FROM 2.12e-008 TO 2.17295e-008


Date: Wed Jul 08 23:10:18 2020
Total elapsed time: 0.194 seconds.

tnom = 27
temp = 27
method = modified trap
totiter = 4327
traniter = 4320
tranpoints = 1649
accept = 1464
rejected = 185
matrix size = 46
fillins = 0
solver = Normal
Matrix Compiler1: 4.92 KB object code size  0.8/0.4/[0.2]
Matrix Compiler2: 5.43 KB object code size  0.4/0.5/[0.3]


