Circuit: *** SPICE deck for cell function_4_size1_2Cinv_100ps_tpdr_sim{lay} from library DDII_P1-Std_Cell_Library

Direct Newton iteration for .op point succeeded.

tpdr=2.7536e-010 FROM 2.015e-008 TO 2.04254e-008


Date: Wed Jul 08 22:52:37 2020
Total elapsed time: 0.204 seconds.

tnom = 27
temp = 27
method = modified trap
totiter = 4416
traniter = 4409
tranpoints = 1811
accept = 1571
rejected = 240
matrix size = 46
fillins = 0
solver = Normal
Matrix Compiler1: 4.92 KB object code size  0.9/0.4/[0.2]
Matrix Compiler2: 5.43 KB object code size  0.5/0.5/[0.3]


