Circuit: *** SPICE deck for cell function_4_size1_8Cinv_800ps_tpdr_sim{lay} from library DDII_P1-Std_Cell_Library

Direct Newton iteration for .op point succeeded.

tpdr=1.02787e-009 FROM 2.12e-008 TO 2.22279e-008


Date: Wed Jul 08 23:06:36 2020
Total elapsed time: 0.187 seconds.

tnom = 27
temp = 27
method = modified trap
totiter = 4159
traniter = 4152
tranpoints = 1496
accept = 1345
rejected = 151
matrix size = 46
fillins = 0
solver = Normal
Matrix Compiler1: 4.92 KB object code size  0.8/0.4/[0.2]
Matrix Compiler2: 5.43 KB object code size  0.4/0.5/[0.3]


