Circuit: *** SPICE deck for cell function_4_size2_1Cinv_800ps_tpdr_sim{lay} from library DDII_P1-Std_Cell_Library

Direct Newton iteration for .op point succeeded.

tpdr=7.34747e-011 FROM 2.12e-008 TO 2.12735e-008


Date: Wed Jul 08 23:31:11 2020
Total elapsed time: 0.188 seconds.

tnom = 27
temp = 27
method = modified trap
totiter = 4522
traniter = 4515
tranpoints = 1756
accept = 1562
rejected = 194
matrix size = 46
fillins = 0
solver = Normal
Matrix Compiler1: 4.92 KB object code size  0.8/0.4/[0.2]
Matrix Compiler2: 5.43 KB object code size  0.5/0.5/[0.3]


