Circuit: *** SPICE deck for cell function_4_size2_2Cinv_100ps_tpdr_sim{lay} from library DDII_P1-Std_Cell_Library

Direct Newton iteration for .op point succeeded.

tpdr=1.48168e-010 FROM 2.015e-008 TO 2.02982e-008


Date: Wed Jul 08 23:28:42 2020
Total elapsed time: 0.203 seconds.

tnom = 27
temp = 27
method = modified trap
totiter = 4776
traniter = 4769
tranpoints = 2005
accept = 1723
rejected = 282
matrix size = 46
fillins = 0
solver = Normal
Matrix Compiler1: 4.92 KB object code size  0.8/0.4/[0.2]
Matrix Compiler2: 5.43 KB object code size  0.4/0.5/[0.3]


