Circuit: *** SPICE deck for cell function_4_size2_2Cinv_0ps_tpdr_sim{lay} from library DDII_P1-Std_Cell_Library

Limiting rise time of source vx to 2e-009
Limiting fall time of source vx to 2e-009
Direct Newton iteration for .op point succeeded.

tpdr=8.69611e-011 FROM 2.3e-008 TO 2.3087e-008


Date: Wed Jul 08 23:27:29 2020
Total elapsed time: 0.188 seconds.

tnom = 27
temp = 27
method = modified trap
totiter = 4791
traniter = 4784
tranpoints = 1835
accept = 1580
rejected = 255
matrix size = 46
fillins = 0
solver = Normal
Matrix Compiler1: 4.92 KB object code size  0.8/0.4/[0.3]
Matrix Compiler2: 5.43 KB object code size  0.4/0.5/[0.4]


