Circuit: *** SPICE deck for cell function_4_size2_1Cinv_400ps_tpdr_sim{lay} from library DDII_P1-Std_Cell_Library

Direct Newton iteration for .op point succeeded.

tpdr=9.02878e-011 FROM 2.06e-008 TO 2.06903e-008


Date: Wed Jul 08 23:29:15 2020
Total elapsed time: 0.203 seconds.

tnom = 27
temp = 27
method = modified trap
totiter = 4504
traniter = 4497
tranpoints = 1853
accept = 1596
rejected = 257
matrix size = 46
fillins = 0
solver = Normal
Matrix Compiler1: 4.92 KB object code size  0.8/0.4/[0.2]
Matrix Compiler2: 5.43 KB object code size  0.4/0.5/[0.3]


