Circuit: *** SPICE deck for cell function_4_size2_4Cinv_100ps_tpdr_sim{lay} from library DDII_P1-Std_Cell_Library

Direct Newton iteration for .op point succeeded.

tpdr=2.72846e-010 FROM 2.015e-008 TO 2.04228e-008


Date: Wed Jul 08 23:28:27 2020
Total elapsed time: 0.219 seconds.

tnom = 27
temp = 27
method = modified trap
totiter = 4679
traniter = 4672
tranpoints = 1874
accept = 1632
rejected = 242
matrix size = 46
fillins = 0
solver = Normal
Matrix Compiler1: 4.92 KB object code size  0.8/0.4/[0.3]
Matrix Compiler2: 5.43 KB object code size  0.4/0.5/[0.3]


