Circuit: *** SPICE deck for cell function_4_size2_1Cinv_100ps_tpdr_sim{lay} from library DDII_P1-Std_Cell_Library

Direct Newton iteration for .op point succeeded.

tpdr=8.56002e-011 FROM 2.015e-008 TO 2.02356e-008


Date: Wed Jul 08 23:28:59 2020
Total elapsed time: 0.204 seconds.

tnom = 27
temp = 27
method = modified trap
totiter = 4928
traniter = 4921
tranpoints = 2019
accept = 1765
rejected = 254
matrix size = 46
fillins = 0
solver = Normal
Matrix Compiler1: 4.92 KB object code size  0.8/0.4/[0.2]
Matrix Compiler2: 5.43 KB object code size  0.4/0.5/[0.3]


