Circuit: *** SPICE deck for cell function_4_size2_8Cinv_400ps_tpdr_sim{lay} from library DDII_P1-Std_Cell_Library

Direct Newton iteration for .op point succeeded.

tpdr=5.20531e-010 FROM 2.06e-008 TO 2.11205e-008


Date: Wed Jul 08 23:30:03 2020
Total elapsed time: 0.199 seconds.

tnom = 27
temp = 27
method = modified trap
totiter = 4676
traniter = 4669
tranpoints = 1905
accept = 1652
rejected = 253
matrix size = 46
fillins = 0
solver = Normal
Matrix Compiler1: 4.92 KB object code size  0.8/0.4/[0.4]
Matrix Compiler2: off  [0.4]/0.4/0.5


