Circuit: *** SPICE deck for cell function_4_size2_8Cinv_100ps_tpdr_sim{lay} from library DDII_P1-Std_Cell_Library

Direct Newton iteration for .op point succeeded.

tpdr=5.24541e-010 FROM 2.015e-008 TO 2.06745e-008


Date: Wed Jul 08 23:28:12 2020
Total elapsed time: 0.188 seconds.

tnom = 27
temp = 27
method = modified trap
totiter = 4253
traniter = 4246
tranpoints = 1803
accept = 1565
rejected = 238
matrix size = 46
fillins = 0
solver = Normal
Matrix Compiler1: 4.92 KB object code size  0.8/0.4/[0.2]
Matrix Compiler2: 5.43 KB object code size  0.4/0.5/[0.3]


