Circuit: *** SPICE deck for cell inverter_size4_1Cinv_800ps_sim{lay} from library DDII_P1-Std_Cell_Library

Direct Newton iteration for .op point succeeded.

tpdf=2.56536e-010 FROM 4e-010 TO 6.56536e-010
tpdr=4.61733e-011 FROM 2.12e-008 TO 2.12462e-008


Date: Wed Jul 08 21:05:48 2020
Total elapsed time: 0.102 seconds.

tnom = 27
temp = 27
method = modified trap
totiter = 4252
traniter = 4246
tranpoints = 1881
accept = 1662
rejected = 219
matrix size = 13
fillins = 0
solver = Normal
Matrix Compiler1: 960 bytes object code size  0.2/0.1/[0.1]
Matrix Compiler2: 1.31 KB object code size  0.1/0.1/[0.1]


