Circuit: *** SPICE deck for cell inverter_size4_1Cinv_800ps_sim{lay} from library DDII_P1-Std_Cell_Library

Direct Newton iteration for .op point succeeded.

tpdf=3.5693e-010 FROM 4e-010 TO 7.5693e-010
tpdr=1.15452e-010 FROM 2.12e-008 TO 2.13155e-008


Date: Wed Jul 08 21:06:40 2020
Total elapsed time: 0.112 seconds.

tnom = 27
temp = 27
method = modified trap
totiter = 4094
traniter = 4088
tranpoints = 1812
accept = 1586
rejected = 226
matrix size = 13
fillins = 0
solver = Normal
Matrix Compiler1: 960 bytes object code size  0.2/0.1/[0.1]
Matrix Compiler2: 1.31 KB object code size  0.1/0.1/[0.1]


