Circuit: *** SPICE deck for cell inverter_size4_1Cinv_800ps_sim{lay} from library DDII_P1-Std_Cell_Library

Direct Newton iteration for .op point succeeded.

tpdf=5.43175e-010 FROM 4e-010 TO 9.43175e-010
tpdr=2.16436e-010 FROM 2.12e-008 TO 2.14164e-008


Date: Wed Jul 08 21:07:11 2020
Total elapsed time: 0.093 seconds.

tnom = 27
temp = 27
method = modified trap
totiter = 3982
traniter = 3976
tranpoints = 1774
accept = 1559
rejected = 215
matrix size = 13
fillins = 0
solver = Normal
Matrix Compiler1: 960 bytes object code size  0.2/0.1/[0.1]
Matrix Compiler2: 1.31 KB object code size  0.1/0.1/[0.1]


