Circuit: *** SPICE deck for cell inverter_size4_1Cinv_800ps_sim{lay} from library DDII_P1-Std_Cell_Library

Direct Newton iteration for .op point succeeded.

tpdf=9.33578e-010 FROM 4e-010 TO 1.33358e-009
tpdr=3.69303e-010 FROM 2.12e-008 TO 2.15693e-008


Date: Wed Jul 08 21:05:25 2020
Total elapsed time: 0.092 seconds.

tnom = 27
temp = 27
method = modified trap
totiter = 3876
traniter = 3870
tranpoints = 1743
accept = 1537
rejected = 206
matrix size = 13
fillins = 0
solver = Normal
Matrix Compiler1: 960 bytes object code size  0.2/0.1/[0.1]
Matrix Compiler2: 1.31 KB object code size  0.1/0.1/[0.1]


