Circuit: *** SPICE deck for cell function_6_size2_1Cinv_100ps_tpdr_sim{lay} from library DDII_P1-Std_Cell_Library

Direct Newton iteration for .op point succeeded.

tpdr=7.59026e-010 FROM 5e-011 TO 8.09026e-010


Date: Wed Jul 08 17:53:07 2020
Total elapsed time: 0.346 seconds.

tnom = 27
temp = 27
method = modified trap
totiter = 5930
traniter = 5904
tranpoints = 2013
accept = 1725
rejected = 288
matrix size = 73
fillins = 2
solver = Normal
Matrix Compiler1: 8.67 KB object code size  1.3/0.7/[0.4]
Matrix Compiler2: 9.16 KB object code size  0.7/0.7/[0.4]


