Circuit: *** SPICE deck for cell function_6_size1_1Cinv_800ps_tpdr_sim{lay} from library DDII_P1-Std_Cell_Library

Direct Newton iteration for .op point succeeded.

tpdr=8.32074e-010 FROM 4e-010 TO 1.23207e-009


Date: Wed Jul 08 17:32:31 2020
Total elapsed time: 0.325 seconds.

tnom = 27
temp = 27
method = modified trap
totiter = 5129
traniter = 5105
tranpoints = 1762
accept = 1532
rejected = 230
matrix size = 73
fillins = 2
solver = Normal
Matrix Compiler1: 8.67 KB object code size  1.4/0.7/[0.4]
Matrix Compiler2: 9.16 KB object code size  0.7/0.7/[0.7]


