Circuit: *** SPICE deck for cell function_6_size1_1Cinv_800ps_tpdr_sim{lay} from library DDII_P1-Std_Cell_Library

Direct Newton iteration for .op point succeeded.

tpdr=1.43521e-009 FROM 4e-010 TO 1.83521e-009


Date: Wed Jul 08 17:33:39 2020
Total elapsed time: 0.320 seconds.

tnom = 27
temp = 27
method = modified trap
totiter = 5167
traniter = 5143
tranpoints = 1830
accept = 1569
rejected = 261
matrix size = 73
fillins = 2
solver = Normal
Matrix Compiler1: 8.67 KB object code size  1.4/0.7/[0.4]
Matrix Compiler2: 9.16 KB object code size  0.7/0.8/[0.4]


