Circuit: *** SPICE deck for cell function_6_size1_1Cinv_800ps_tpdr_sim{lay} from library DDII_P1-Std_Cell_Library

Direct Newton iteration for .op point succeeded.

tpdr=5.46521e-010 FROM 4e-010 TO 9.46521e-010


Date: Wed Jul 08 17:31:58 2020
Total elapsed time: 0.303 seconds.

tnom = 27
temp = 27
method = modified trap
totiter = 4828
traniter = 4804
tranpoints = 1903
accept = 1660
rejected = 243
matrix size = 73
fillins = 2
solver = Normal
Matrix Compiler1: 8.67 KB object code size  1.4/0.7/[0.4]
Matrix Compiler2: 9.16 KB object code size  0.7/0.7/[0.4]


