Circuit: *** SPICE deck for cell inverter_size1_1Cinv_800ps_sim{lay} from library DDII_P1-Std_Cell_Library

Direct Newton iteration for .op point succeeded.

tpdf=1.75826e-009 FROM 4e-010 TO 2.15826e-009
tpdr=6.33786e-010 FROM 2.12e-008 TO 2.18338e-008


Date: Wed Jul 08 20:52:03 2020
Total elapsed time: 0.087 seconds.

tnom = 27
temp = 27
method = modified trap
totiter = 3297
traniter = 3291
tranpoints = 1504
accept = 1358
rejected = 146
matrix size = 13
fillins = 0
solver = Normal
Matrix Compiler1: 960 bytes object code size  0.2/0.1/[0.1]
Matrix Compiler2: 1.31 KB object code size  0.1/0.1/[0.1]


