Circuit: *** SPICE deck for cell inverter_size1_1Cinv_800ps_sim{lay} from library DDII_P1-Std_Cell_Library

Direct Newton iteration for .op point succeeded.

tpdf=5.54836e-010 FROM 4e-010 TO 9.54837e-010
tpdr=2.17578e-010 FROM 2.12e-008 TO 2.14176e-008


Date: Wed Jul 08 20:51:01 2020
Total elapsed time: 0.093 seconds.

tnom = 27
temp = 27
method = modified trap
totiter = 3564
traniter = 3558
tranpoints = 1554
accept = 1405
rejected = 149
matrix size = 13
fillins = 0
solver = Normal
Matrix Compiler1: 960 bytes object code size  0.2/0.1/[0.1]
Matrix Compiler2: 1.31 KB object code size  0.1/0.1/[0.1]


