Circuit: *** SPICE deck for cell inverter_size1_1Cinv_800ps_sim{lay} from library DDII_P1-Std_Cell_Library

Direct Newton iteration for .op point succeeded.

tpdf=9.63462e-010 FROM 4e-010 TO 1.36346e-009
tpdr=3.69864e-010 FROM 2.12e-008 TO 2.15699e-008


Date: Wed Jul 08 20:51:29 2020
Total elapsed time: 0.091 seconds.

tnom = 27
temp = 27
method = modified trap
totiter = 3787
traniter = 3781
tranpoints = 1712
accept = 1529
rejected = 183
matrix size = 13
fillins = 0
solver = Normal
Matrix Compiler1: 960 bytes object code size  0.2/0.1/[0.1]
Matrix Compiler2: 1.31 KB object code size  0.1/0.1/[0.1]


