Circuit: *** SPICE deck for cell inverter_size8_1Cinv_400ps_sim{lay} from library DDII_P1-Std_Cell_Library

Direct Newton iteration for .op point succeeded.

tpdf=2.76305e-010 FROM 2e-010 TO 4.76305e-010
tpdr=1.11326e-010 FROM 2.06e-008 TO 2.07113e-008


Date: Wed Jul 08 21:24:27 2020
Total elapsed time: 0.092 seconds.

tnom = 27
temp = 27
method = modified trap
totiter = 4222
traniter = 4216
tranpoints = 1883
accept = 1652
rejected = 231
matrix size = 13
fillins = 0
solver = Normal
Matrix Compiler1: 960 bytes object code size  0.2/0.1/[0.1]
Matrix Compiler2: 1.31 KB object code size  0.1/0.1/[0.1]


