Circuit: *** SPICE deck for cell inverter_size8_1Cinv_400ps_sim{lay} from library DDII_P1-Std_Cell_Library

Direct Newton iteration for .op point succeeded.

tpdf=4.70603e-010 FROM 2e-010 TO 6.70603e-010
tpdr=1.86892e-010 FROM 2.06e-008 TO 2.07869e-008


Date: Wed Jul 08 21:26:09 2020
Total elapsed time: 0.103 seconds.

tnom = 27
temp = 27
method = modified trap
totiter = 4391
traniter = 4385
tranpoints = 2014
accept = 1731
rejected = 283
matrix size = 13
fillins = 0
solver = Normal
Matrix Compiler1: 960 bytes object code size  0.2/0.1/[0.1]
Matrix Compiler2: 1.31 KB object code size  0.1/0.1/[0.1]


