Circuit: *** SPICE deck for cell inverter_size8_1Cinv_400ps_sim{lay} from library DDII_P1-Std_Cell_Library

Direct Newton iteration for .op point succeeded.

tpdf=1.34458e-010 FROM 2e-010 TO 3.34458e-010
tpdr=2.74952e-011 FROM 2.06e-008 TO 2.06275e-008


Date: Wed Jul 08 21:24:56 2020
Total elapsed time: 0.095 seconds.

tnom = 27
temp = 27
method = modified trap
totiter = 4270
traniter = 4264
tranpoints = 1870
accept = 1639
rejected = 231
matrix size = 13
fillins = 0
solver = Normal
Matrix Compiler1: 960 bytes object code size  0.2/0.1/[0.1]
Matrix Compiler2: 1.31 KB object code size  0.1/0.1/[0.1]


