Circuit: *** SPICE deck for cell function_6_size2_4Cinv_400ps_tpdf_sim{lay} from library DDII_P1-Std_Cell_Library

Direct Newton iteration for .op point succeeded.

tpdf=7.06194e-010 FROM 2e-010 TO 9.06194e-010


Date: Wed Jul 08 10:57:02 2020
Total elapsed time: 0.296 seconds.

tnom = 27
temp = 27
method = modified trap
totiter = 4976
traniter = 4959
tranpoints = 2017
accept = 1725
rejected = 292
matrix size = 73
fillins = 2
solver = Normal
Matrix Compiler1: 8.67 KB object code size  1.4/0.8/[0.4]
Matrix Compiler2: 9.16 KB object code size  0.7/0.8/[0.4]


