Circuit: *** SPICE deck for cell function_6_size2_8Cinv_800ps_tpdf_sim{lay} from library DDII_P1-Std_Cell_Library

Direct Newton iteration for .op point succeeded.

tpdf=1.30769e-009 FROM 4e-010 TO 1.70769e-009


Date: Wed Jul 08 10:57:44 2020
Total elapsed time: 0.280 seconds.

tnom = 27
temp = 27
method = modified trap
totiter = 4622
traniter = 4605
tranpoints = 1838
accept = 1598
rejected = 240
matrix size = 73
fillins = 2
solver = Normal
Matrix Compiler1: 8.67 KB object code size  2.3/1.4/[0.4]
Matrix Compiler2: 9.16 KB object code size  1.0/1.3/[0.4]


