Circuit: *** SPICE deck for cell function_6_size2_8Cinv_100ps_tpdf_sim{lay} from library DDII_P1-Std_Cell_Library

Direct Newton iteration for .op point succeeded.

tpdf=1.23006e-009 FROM 5e-011 TO 1.28006e-009


Date: Wed Jul 08 10:54:46 2020
Total elapsed time: 0.287 seconds.

tnom = 27
temp = 27
method = modified trap
totiter = 4731
traniter = 4714
tranpoints = 1952
accept = 1684
rejected = 268
matrix size = 73
fillins = 2
solver = Normal
Matrix Compiler1: 8.67 KB object code size  1.4/0.7/[0.4]
Matrix Compiler2: 9.16 KB object code size  0.7/0.8/[0.4]


