Circuit: *** SPICE deck for cell function_6_size2_4Cinv_0ps_tpdf_sim{lay} from library DDII_P1-Std_Cell_Library

Limiting rise time of source vx to 2e-009
Limiting fall time of source vx to 2e-009
Direct Newton iteration for .op point succeeded.

tpdf=1.05038e-009 FROM 1e-009 TO 2.05038e-009


Date: Wed Jul 08 10:54:04 2020
Total elapsed time: 0.266 seconds.

tnom = 27
temp = 27
method = modified trap
totiter = 4671
traniter = 4654
tranpoints = 1842
accept = 1598
rejected = 244
matrix size = 73
fillins = 2
solver = Normal
Matrix Compiler1: 8.67 KB object code size  1.4/0.7/[0.4]
Matrix Compiler2: 9.16 KB object code size  0.7/0.7/[0.4]


