Circuit: *** SPICE deck for cell function_6_size2_1Cinv_0ps_tpdf_sim{lay} from library DDII_P1-Std_Cell_Library

Limiting rise time of source vx to 2e-009
Limiting fall time of source vx to 2e-009
Direct Newton iteration for .op point succeeded.

tpdf=6.91235e-010 FROM 1e-009 TO 1.69123e-009


Date: Wed Jul 08 10:53:12 2020
Total elapsed time: 0.297 seconds.

tnom = 27
temp = 27
method = modified trap
totiter = 5061
traniter = 5044
tranpoints = 1784
accept = 1535
rejected = 249
matrix size = 73
fillins = 2
solver = Normal
Matrix Compiler1: 8.67 KB object code size  1.4/0.8/[0.4]
Matrix Compiler2: 9.16 KB object code size  0.7/0.8/[0.4]


