Circuit: *** SPICE deck for cell function_6_size2_1Cinv_400ps_tpdf_sim{lay} from library DDII_P1-Std_Cell_Library

Direct Newton iteration for .op point succeeded.

tpdf=3.11657e-010 FROM 2e-010 TO 5.11657e-010


Date: Wed Jul 08 10:56:11 2020
Total elapsed time: 0.288 seconds.

tnom = 27
temp = 27
method = modified trap
totiter = 4826
traniter = 4809
tranpoints = 1978
accept = 1709
rejected = 269
matrix size = 73
fillins = 2
solver = Normal
Matrix Compiler1: 8.67 KB object code size  1.4/0.7/[0.4]
Matrix Compiler2: 9.16 KB object code size  0.7/0.8/[0.6]


