Circuit: *** SPICE deck for cell function_6_size2_2Cinv_100ps_tpdf_sim{lay} from library DDII_P1-Std_Cell_Library

Direct Newton iteration for .op point succeeded.

tpdf=4.02451e-010 FROM 5e-011 TO 4.52451e-010


Date: Wed Jul 08 10:55:26 2020
Total elapsed time: 0.328 seconds.

tnom = 27
temp = 27
method = modified trap
totiter = 5777
traniter = 5760
tranpoints = 2197
accept = 1877
rejected = 320
matrix size = 73
fillins = 2
solver = Normal
Matrix Compiler1: 8.67 KB object code size  1.4/0.7/[0.4]
Matrix Compiler2: 9.16 KB object code size  0.7/0.7/[0.4]


