Circuit: *** SPICE deck for cell function_6_size2_8Cinv_400ps_tpdf_sim{lay} from library DDII_P1-Std_Cell_Library

Direct Newton iteration for .op point succeeded.

tpdf=1.25504e-009 FROM 2e-010 TO 1.45504e-009


Date: Wed Jul 08 10:57:21 2020
Total elapsed time: 0.281 seconds.

tnom = 27
temp = 27
method = modified trap
totiter = 4607
traniter = 4590
tranpoints = 1866
accept = 1621
rejected = 245
matrix size = 73
fillins = 2
solver = Normal
Matrix Compiler1: 8.67 KB object code size  1.4/0.7/[0.5]
Matrix Compiler2: 9.16 KB object code size  0.7/0.9/[0.4]


