Circuit: *** SPICE deck for cell function_6_size2_2Cinv_0ps_tpdf_sim{lay} from library DDII_P1-Std_Cell_Library

Limiting rise time of source vx to 2e-009
Limiting fall time of source vx to 2e-009
Direct Newton iteration for .op point succeeded.

tpdf=8.16775e-010 FROM 1e-009 TO 1.81678e-009


Date: Wed Jul 08 10:53:43 2020
Total elapsed time: 0.286 seconds.

tnom = 27
temp = 27
method = modified trap
totiter = 4867
traniter = 4850
tranpoints = 1931
accept = 1658
rejected = 273
matrix size = 73
fillins = 2
solver = Normal
Matrix Compiler1: 8.67 KB object code size  1.4/0.7/[0.4]
Matrix Compiler2: 9.16 KB object code size  0.7/1.0/[0.4]


