Circuit: *** SPICE deck for cell function_6_size2_1Cinv_100ps_tpdf_sim{lay} from library DDII_P1-Std_Cell_Library

Direct Newton iteration for .op point succeeded.

tpdf=2.64358e-010 FROM 5e-011 TO 3.14358e-010


Date: Wed Jul 08 10:55:50 2020
Total elapsed time: 0.333 seconds.

tnom = 27
temp = 27
method = modified trap
totiter = 5342
traniter = 5325
tranpoints = 2159
accept = 1849
rejected = 310
matrix size = 73
fillins = 2
solver = Normal
Matrix Compiler1: 8.67 KB object code size  1.4/0.7/[0.4]
Matrix Compiler2: 9.16 KB object code size  0.7/0.8/[0.4]


