Circuit: *** SPICE deck for cell function_6_size2_4Cinv_100ps_tpdf_sim{lay} from library DDII_P1-Std_Cell_Library

Direct Newton iteration for .op point succeeded.

tpdf=6.76022e-010 FROM 5e-011 TO 7.26022e-010


Date: Wed Jul 08 10:55:08 2020
Total elapsed time: 0.296 seconds.

tnom = 27
temp = 27
method = modified trap
totiter = 4958
traniter = 4941
tranpoints = 2071
accept = 1774
rejected = 297
matrix size = 73
fillins = 2
solver = Normal
Matrix Compiler1: 8.67 KB object code size  1.4/0.7/[0.6]
Matrix Compiler2: 9.16 KB object code size  0.7/0.8/[0.4]


