Circuit: *** SPICE deck for cell function_6_size2_8Cinv_0ps_tpdf_sim{lay} from library DDII_P1-Std_Cell_Library

Limiting rise time of source vx to 2e-009
Limiting fall time of source vx to 2e-009
Direct Newton iteration for .op point succeeded.

tpdf=1.53881e-009 FROM 1e-009 TO 2.53881e-009


Date: Wed Jul 08 10:54:23 2020
Total elapsed time: 0.279 seconds.

tnom = 27
temp = 27
method = modified trap
totiter = 4652
traniter = 4635
tranpoints = 1773
accept = 1543
rejected = 230
matrix size = 73
fillins = 2
solver = Normal
Matrix Compiler1: 8.67 KB object code size  1.4/0.7/[0.4]
Matrix Compiler2: 9.16 KB object code size  0.7/0.8/[0.5]


