Circuit: *** SPICE deck for cell function_6_size2_2Cinv_400ps_tpdf_sim{lay} from library DDII_P1-Std_Cell_Library

Direct Newton iteration for .op point succeeded.

tpdf=4.45533e-010 FROM 2e-010 TO 6.45533e-010


Date: Wed Jul 08 10:56:43 2020
Total elapsed time: 0.281 seconds.

tnom = 27
temp = 27
method = modified trap
totiter = 4944
traniter = 4927
tranpoints = 1995
accept = 1718
rejected = 277
matrix size = 73
fillins = 2
solver = Normal
Matrix Compiler1: 8.67 KB object code size  1.4/0.8/[0.4]
Matrix Compiler2: 9.16 KB object code size  0.7/0.8/[0.5]


