Circuit: *** SPICE deck for cell function_6_size2_4Cinv_800ps_tpdf_sim{lay} from library DDII_P1-Std_Cell_Library

Direct Newton iteration for .op point succeeded.

tpdf=7.79443e-010 FROM 4e-010 TO 1.17944e-009


Date: Wed Jul 08 10:58:06 2020
Total elapsed time: 0.267 seconds.

tnom = 27
temp = 27
method = modified trap
totiter = 4556
traniter = 4539
tranpoints = 1836
accept = 1604
rejected = 232
matrix size = 73
fillins = 2
solver = Normal
Matrix Compiler1: 8.67 KB object code size  1.4/0.7/[0.4]
Matrix Compiler2: 9.16 KB object code size  0.7/0.8/[0.4]


