Circuit: *** SPICE deck for cell function_6_size2_1Cinv_800ps_tpdf_sim{lay} from library DDII_P1-Std_Cell_Library

Direct Newton iteration for .op point succeeded.

tpdf=4.03887e-010 FROM 4e-010 TO 8.03887e-010


Date: Wed Jul 08 10:58:46 2020
Total elapsed time: 0.281 seconds.

tnom = 27
temp = 27
method = modified trap
totiter = 4629
traniter = 4612
tranpoints = 1853
accept = 1646
rejected = 207
matrix size = 73
fillins = 2
solver = Normal
Matrix Compiler1: 8.67 KB object code size  1.4/0.8/[0.4]
Matrix Compiler2: 9.16 KB object code size  0.7/0.8/[0.4]


