Circuit: *** SPICE deck for cell function_6_size2_1Cinv_0ps_tpdr_sim{lay} from library DDII_P1-Std_Cell_Library

Limiting rise time of source vx to 2e-009
Limiting fall time of source vx to 2e-009
Direct Newton iteration for .op point succeeded.

tpdr=1.58795e-009 FROM 1e-009 TO 2.58795e-009


Date: Wed Jul 08 17:45:31 2020
Total elapsed time: 0.302 seconds.

tnom = 27
temp = 27
method = modified trap
totiter = 5054
traniter = 5028
tranpoints = 1790
accept = 1535
rejected = 255
matrix size = 73
fillins = 2
solver = Normal
Matrix Compiler1: 8.67 KB object code size  1.3/0.7/[0.4]
Matrix Compiler2: 9.16 KB object code size  0.7/0.8/[0.4]


