Circuit: *** SPICE deck for cell function_6_size2_1Cinv_0ps_tpdr_sim{lay} from library DDII_P1-Std_Cell_Library

Limiting rise time of source vx to 2e-009
Limiting fall time of source vx to 2e-009
Direct Newton iteration for .op point succeeded.

tpdr=6.61459e-010 FROM 1e-009 TO 1.66146e-009


Date: Wed Jul 08 17:42:58 2020
Total elapsed time: 0.316 seconds.

tnom = 27
temp = 27
method = modified trap
totiter = 5297
traniter = 5271
tranpoints = 1828
accept = 1573
rejected = 255
matrix size = 73
fillins = 2
solver = Normal
Matrix Compiler1: 8.67 KB object code size  1.4/0.7/[0.4]
Matrix Compiler2: 9.16 KB object code size  0.7/0.7/[0.4]


