Circuit: *** SPICE deck for cell function_6_size4_1Cinv_800ps_tpdr_sim{lay} from library DDII_P1-Std_Cell_Library

Direct Newton iteration for .op point succeeded.

tpdr=8.20457e-010 FROM 4e-010 TO 1.22046e-009


Date: Wed Jul 08 18:59:43 2020
Total elapsed time: 1.167 seconds.

tnom = 27
temp = 27
method = modified trap
totiter = 6202
traniter = 6177
tranpoints = 2153
accept = 1799
rejected = 354
matrix size = 73
fillins = 2
solver = Normal
Matrix Compiler1:     486 opcodes  4.9/[1.2]/1.6
Matrix Compiler2: 9.16 KB object code size  2.0/1.3/[1.2]


