Circuit: *** SPICE deck for cell function_6_size4_1Cinv_800ps_tpdr_sim{lay} from library DDII_P1-Std_Cell_Library

Direct Newton iteration for .op point succeeded.

tpdr=4.05881e-010 FROM 4e-010 TO 8.05881e-010


Date: Wed Jul 08 18:57:22 2020
Total elapsed time: 1.211 seconds.

tnom = 27
temp = 27
method = modified trap
totiter = 6020
traniter = 5995
tranpoints = 2113
accept = 1813
rejected = 300
matrix size = 73
fillins = 2
solver = Normal
Matrix Compiler1: 8.67 KB object code size  4.8/1.5/[0.7]
Matrix Compiler2: 9.16 KB object code size  1.5/1.4/[0.9]


