Circuit: *** SPICE deck for cell function_6_size1_1Cinv_0ps_tpdr_sim{lay} from library DDII_P1-Std_Cell_Library

Limiting rise time of source vx to 2e-009
Limiting fall time of source vx to 2e-009
Direct Newton iteration for .op point succeeded.

tpdr=1.58164e-009 FROM 1e-009 TO 2.58164e-009


Date: Wed Jul 08 16:51:36 2020
Total elapsed time: 0.329 seconds.

tnom = 27
temp = 27
method = modified trap
totiter = 4782
traniter = 4758
tranpoints = 1584
accept = 1404
rejected = 180
matrix size = 73
fillins = 2
solver = Normal
Matrix Compiler1: 8.67 KB object code size  1.4/0.7/[0.4]
Matrix Compiler2: 9.16 KB object code size  0.7/0.7/[0.4]


