Circuit: *** SPICE deck for cell function_6_size1_1Cinv_0ps_tpdr_sim{lay} from library DDII_P1-Std_Cell_Library

Limiting rise time of source vx to 2e-009
Limiting fall time of source vx to 2e-009
Direct Newton iteration for .op point succeeded.

tpdr=7.96914e-010 FROM 1e-009 TO 1.79691e-009


Date: Wed Jul 08 16:45:20 2020
Total elapsed time: 0.612 seconds.

tnom = 27
temp = 27
method = modified trap
totiter = 4824
traniter = 4800
tranpoints = 1646
accept = 1456
rejected = 190
matrix size = 73
fillins = 2
solver = Normal
Matrix Compiler1: 8.67 KB object code size  1.3/1.3/[0.4]
Matrix Compiler2: 9.16 KB object code size  0.7/1.7/[0.5]


