Circuit: *** SPICE deck for cell function_4_size4_8Cinv_100ps_tpdr_sim{lay} from library DDII_P1-Std_Cell_Library

Direct Newton iteration for .op point succeeded.

tpdr=2.6797e-010 FROM 2.015e-008 TO 2.0418e-008


Date: Wed Jul 08 23:45:24 2020
Total elapsed time: 0.203 seconds.

tnom = 27
temp = 27
method = modified trap
totiter = 5262
traniter = 5255
tranpoints = 2123
accept = 1818
rejected = 305
matrix size = 46
fillins = 0
solver = Normal
Matrix Compiler1: 4.92 KB object code size  0.8/0.4/[0.2]
Matrix Compiler2: 5.43 KB object code size  0.4/0.5/[0.3]


