Circuit: *** SPICE deck for cell function_4_size4_1Cinv_800ps_tpdr_sim{lay} from library DDII_P1-Std_Cell_Library

Direct Newton iteration for .op point succeeded.

tpdr=2.06591e-011 FROM 2.12e-008 TO 2.12207e-008


Date: Wed Jul 08 23:49:23 2020
Total elapsed time: 0.203 seconds.

tnom = 27
temp = 27
method = modified trap
totiter = 5021
traniter = 5014
tranpoints = 1927
accept = 1676
rejected = 251
matrix size = 46
fillins = 0
solver = Normal
Matrix Compiler1: 4.92 KB object code size  0.8/0.4/[0.2]
Matrix Compiler2: 5.43 KB object code size  0.4/0.5/[0.3]


