Circuit: *** SPICE deck for cell function_4_size4_1Cinv_400ps_tpdr_sim{lay} from library DDII_P1-Std_Cell_Library

Direct Newton iteration for .op point succeeded.

tpdr=5.05174e-011 FROM 2.06e-008 TO 2.06505e-008


Date: Wed Jul 08 23:47:12 2020
Total elapsed time: 0.221 seconds.

tnom = 27
temp = 27
method = modified trap
totiter = 5135
traniter = 5128
tranpoints = 1966
accept = 1726
rejected = 240
matrix size = 46
fillins = 0
solver = Normal
Matrix Compiler1: 4.92 KB object code size  0.8/0.4/[0.3]
Matrix Compiler2: 5.43 KB object code size  0.4/0.5/[0.3]


