Circuit: *** SPICE deck for cell function_4_size4_8Cinv_800ps_tpdr_sim{lay} from library DDII_P1-Std_Cell_Library

Direct Newton iteration for .op point succeeded.

tpdr=2.8991e-010 FROM 2.12e-008 TO 2.14899e-008


Date: Wed Jul 08 23:48:39 2020
Total elapsed time: 0.201 seconds.

tnom = 27
temp = 27
method = modified trap
totiter = 4434
traniter = 4427
tranpoints = 1843
accept = 1612
rejected = 231
matrix size = 46
fillins = 0
solver = Normal
Matrix Compiler1: 4.92 KB object code size  0.8/0.4/[0.2]
Matrix Compiler2: 5.43 KB object code size  0.4/0.5/[0.2]


