Circuit: *** SPICE deck for cell function_4_size4_1Cinv_100ps_tpdf_sim{lay} from library DDII_P1-Std_Cell_Library

Direct Newton iteration for .op point succeeded.

tpdf=1.65828e-010 FROM 5e-011 TO 2.15828e-010


Date: Wed Jul 08 23:37:12 2020
Total elapsed time: 0.218 seconds.

tnom = 27
temp = 27
method = modified trap
totiter = 5420
traniter = 5403
tranpoints = 1980
accept = 1738
rejected = 242
matrix size = 46
fillins = 0
solver = Normal
Matrix Compiler1: 4.92 KB object code size  0.8/0.4/[0.2]
Matrix Compiler2: 5.43 KB object code size  0.4/0.6/[0.3]


