Circuit: *** SPICE deck for cell function_4_size4_4Cinv_100ps_tpdf_sim{lay} from library DDII_P1-Std_Cell_Library

Direct Newton iteration for .op point succeeded.

tpdf=3.96217e-010 FROM 5e-011 TO 4.46217e-010


Date: Wed Jul 08 23:36:44 2020
Total elapsed time: 0.227 seconds.

tnom = 27
temp = 27
method = modified trap
totiter = 5649
traniter = 5632
tranpoints = 2074
accept = 1794
rejected = 280
matrix size = 46
fillins = 0
solver = Normal
Matrix Compiler1: 4.92 KB object code size  0.8/0.5/[0.2]
Matrix Compiler2: 5.43 KB object code size  0.4/0.5/[0.3]


