Circuit: *** SPICE deck for cell function_4_size4_1Cinv_0ps_tpdf_sim{lay} from library DDII_P1-Std_Cell_Library

Limiting rise time of source vx to 2e-009
Limiting fall time of source vx to 2e-009
Direct Newton iteration for .op point succeeded.

tpdf=5.47285e-010 FROM 1e-009 TO 1.54728e-009


Date: Wed Jul 08 23:35:27 2020
Total elapsed time: 0.218 seconds.

tnom = 27
temp = 27
method = modified trap
totiter = 5487
traniter = 5470
tranpoints = 1959
accept = 1660
rejected = 299
matrix size = 46
fillins = 0
solver = Normal
Matrix Compiler1: 4.92 KB object code size  0.8/0.4/[0.2]
Matrix Compiler2: 5.43 KB object code size  0.4/0.5/[0.3]


