Circuit: *** SPICE deck for cell function_4_size4_1Cinv_800ps_tpdf_sim{lay} from library DDII_P1-Std_Cell_Library

Direct Newton iteration for .op point succeeded.

tpdf=3.09629e-010 FROM 4e-010 TO 7.09629e-010


Date: Wed Jul 08 23:39:12 2020
Total elapsed time: 0.219 seconds.

tnom = 27
temp = 27
method = modified trap
totiter = 5233
traniter = 5216
tranpoints = 1976
accept = 1690
rejected = 286
matrix size = 46
fillins = 0
solver = Normal
Matrix Compiler1: 4.92 KB object code size  0.8/0.4/[0.2]
Matrix Compiler2: 5.43 KB object code size  0.4/0.5/[0.3]


