Circuit: *** SPICE deck for cell function_4_size4_2Cinv_800ps_tpdf_sim{lay} from library DDII_P1-Std_Cell_Library

Direct Newton iteration for .op point succeeded.

tpdf=3.79907e-010 FROM 4e-010 TO 7.79907e-010


Date: Wed Jul 08 23:38:57 2020
Total elapsed time: 0.203 seconds.

tnom = 27
temp = 27
method = modified trap
totiter = 4947
traniter = 4930
tranpoints = 1938
accept = 1682
rejected = 256
matrix size = 46
fillins = 0
solver = Normal
Matrix Compiler1: 4.92 KB object code size  0.8/0.4/[0.2]
Matrix Compiler2: 5.43 KB object code size  0.4/0.4/[0.3]


