Circuit: *** SPICE deck for cell function_4_size4_2Cinv_100ps_tpdf_sim{lay} from library DDII_P1-Std_Cell_Library

Direct Newton iteration for .op point succeeded.

tpdf=2.42059e-010 FROM 5e-011 TO 2.92059e-010


Date: Wed Jul 08 23:36:57 2020
Total elapsed time: 0.214 seconds.

tnom = 27
temp = 27
method = modified trap
totiter = 5386
traniter = 5369
tranpoints = 2193
accept = 1873
rejected = 320
matrix size = 46
fillins = 0
solver = Normal
Matrix Compiler1: 4.92 KB object code size  0.8/0.5/[0.2]
Matrix Compiler2: 5.43 KB object code size  0.4/0.5/[0.3]


