Circuit: *** SPICE deck for cell function_4_size4_8Cinv_800ps_tpdf_sim{lay} from library DDII_P1-Std_Cell_Library

Direct Newton iteration for .op point succeeded.

tpdf=7.98991e-010 FROM 4e-010 TO 1.19899e-009


Date: Wed Jul 08 23:38:28 2020
Total elapsed time: 0.187 seconds.

tnom = 27
temp = 27
method = modified trap
totiter = 4474
traniter = 4457
tranpoints = 1856
accept = 1626
rejected = 230
matrix size = 46
fillins = 0
solver = Normal
Matrix Compiler1: 4.92 KB object code size  0.8/0.4/[0.2]
Matrix Compiler2: 5.43 KB object code size  0.4/0.5/[0.3]


