Circuit: *** SPICE deck for cell function_4_size4_4Cinv_800ps_tpdf_sim{lay} from library DDII_P1-Std_Cell_Library

Direct Newton iteration for .op point succeeded.

tpdf=5.15467e-010 FROM 4e-010 TO 9.15467e-010


Date: Wed Jul 08 23:38:44 2020
Total elapsed time: 0.203 seconds.

tnom = 27
temp = 27
method = modified trap
totiter = 4466
traniter = 4449
tranpoints = 1872
accept = 1659
rejected = 213
matrix size = 46
fillins = 0
solver = Normal
Matrix Compiler1: 4.92 KB object code size  0.8/0.4/[0.2]
Matrix Compiler2: 5.43 KB object code size  0.4/0.5/[0.3]


