Circuit: *** SPICE deck for cell function_4_size4_8Cinv_100ps_tpdf_sim{lay} from library DDII_P1-Std_Cell_Library

Direct Newton iteration for .op point succeeded.

tpdf=6.98302e-010 FROM 5e-011 TO 7.48302e-010


Date: Wed Jul 08 23:36:27 2020
Total elapsed time: 0.221 seconds.

tnom = 27
temp = 27
method = modified trap
totiter = 5254
traniter = 5237
tranpoints = 2068
accept = 1771
rejected = 297
matrix size = 46
fillins = 0
solver = Normal
Matrix Compiler1: 4.92 KB object code size  0.8/0.4/[0.2]
Matrix Compiler2: 5.43 KB object code size  0.4/0.5/[0.3]


