Circuit: *** SPICE deck for cell function_4_size1_8Cinv_400ps_tpdr_sim{lay} from library DDII_P1-Std_Cell_Library

Direct Newton iteration for .op point succeeded.

tpdr=1.01095e-009 FROM 2.06e-008 TO 2.1611e-008


Date: Wed Jul 08 23:06:01 2020
Total elapsed time: 0.172 seconds.

tnom = 27
temp = 27
method = modified trap
totiter = 3858
traniter = 3851
tranpoints = 1566
accept = 1414
rejected = 152
matrix size = 46
fillins = 0
solver = Normal
Matrix Compiler1: 4.92 KB object code size  0.8/0.5/[0.3]
Matrix Compiler2: 5.43 KB object code size  0.4/0.6/[0.3]


