Circuit: *** SPICE deck for cell function_4_size1_2Cinv_400ps_tpdr_sim{lay} from library DDII_P1-Std_Cell_Library

Direct Newton iteration for .op point succeeded.

tpdr=2.75856e-010 FROM 2.06e-008 TO 2.08759e-008


Date: Wed Jul 08 23:05:23 2020
Total elapsed time: 0.186 seconds.

tnom = 27
temp = 27
method = modified trap
totiter = 4447
traniter = 4440
tranpoints = 1690
accept = 1478
rejected = 212
matrix size = 46
fillins = 0
solver = Normal
Matrix Compiler1: 4.92 KB object code size  0.8/0.4/[0.2]
Matrix Compiler2: 5.43 KB object code size  0.4/0.5/[0.2]


