Circuit: *** SPICE deck for cell function_4_size1_1Cinv_100ps_tpdr_sim{lay} from library DDII_P1-Std_Cell_Library

Direct Newton iteration for .op point succeeded.

tpdr=1.49387e-010 FROM 2.015e-008 TO 2.02994e-008


Date: Wed Jul 08 22:52:52 2020
Total elapsed time: 0.188 seconds.

tnom = 27
temp = 27
method = modified trap
totiter = 4627
traniter = 4620
tranpoints = 1940
accept = 1671
rejected = 269
matrix size = 46
fillins = 0
solver = Normal
Matrix Compiler1: 4.92 KB object code size  0.8/0.4/[0.3]
Matrix Compiler2: 5.43 KB object code size  0.4/0.5/[0.4]


