Circuit: *** SPICE deck for cell function_4_size1_8Cinv_100ps_tpdr_sim{lay} from library DDII_P1-Std_Cell_Library

Direct Newton iteration for .op point succeeded.

tpdr=1.01262e-009 FROM 2.015e-008 TO 2.11626e-008


Date: Wed Jul 08 22:47:35 2020
Total elapsed time: 0.175 seconds.

tnom = 27
temp = 27
method = modified trap
totiter = 3888
traniter = 3881
tranpoints = 1651
accept = 1471
rejected = 180
matrix size = 46
fillins = 0
solver = Normal
Matrix Compiler1: 4.92 KB object code size  0.8/0.4/[0.2]
Matrix Compiler2: 5.43 KB object code size  0.4/0.5/[0.3]


