Circuit: *** SPICE deck for cell function_4_size1_4Cinv_100ps_tpdr_sim{lay} from library DDII_P1-Std_Cell_Library

Direct Newton iteration for .op point succeeded.

tpdr=5.26061e-010 FROM 2.015e-008 TO 2.06761e-008


Date: Wed Jul 08 22:47:52 2020
Total elapsed time: 0.188 seconds.

tnom = 27
temp = 27
method = modified trap
totiter = 4215
traniter = 4208
tranpoints = 1809
accept = 1567
rejected = 242
matrix size = 46
fillins = 0
solver = Normal
Matrix Compiler1: 4.92 KB object code size  0.8/0.4/[0.2]
Matrix Compiler2: 5.43 KB object code size  0.4/0.5/[0.3]


