Circuit: *** SPICE deck for cell inverter_size2_1Cinv_400ps_sim{lay} from library DDII_P1-Std_Cell_Library

Direct Newton iteration for .op point succeeded.

tpdf=2.7836e-010 FROM 2e-010 TO 4.7836e-010
tpdr=1.11931e-010 FROM 2.06e-008 TO 2.07119e-008


Date: Wed Jul 08 20:32:12 2020
Total elapsed time: 0.095 seconds.

tnom = 27
temp = 27
method = modified trap
totiter = 4141
traniter = 4135
tranpoints = 1833
accept = 1613
rejected = 220
matrix size = 13
fillins = 0
solver = Normal
Matrix Compiler1: 960 bytes object code size  0.2/0.1/[0.1]
Matrix Compiler2: 1.31 KB object code size  0.1/0.2/[0.1]


