Circuit: *** SPICE deck for cell inverter_size2_1Cinv_400ps_sim{lay} from library DDII_P1-Std_Cell_Library

Direct Newton iteration for .op point succeeded.

tpdf=8.88574e-010 FROM 2e-010 TO 1.08857e-009
tpdr=3.19425e-010 FROM 2.06e-008 TO 2.09194e-008


Date: Wed Jul 08 20:34:21 2020
Total elapsed time: 0.095 seconds.

tnom = 27
temp = 27
method = modified trap
totiter = 3686
traniter = 3680
tranpoints = 1684
accept = 1498
rejected = 186
matrix size = 13
fillins = 0
solver = Normal
Matrix Compiler1: 960 bytes object code size  0.2/0.1/[0.1]
Matrix Compiler2: 1.31 KB object code size  0.1/0.1/[0.1]


