Circuit: *** SPICE deck for cell inverter_size2_1Cinv_400ps_sim{lay} from library DDII_P1-Std_Cell_Library

Direct Newton iteration for .op point succeeded.

tpdf=1.67745e-009 FROM 2e-010 TO 1.87745e-009
tpdr=5.93691e-010 FROM 2.06e-008 TO 2.11937e-008


Date: Wed Jul 08 20:34:53 2020
Total elapsed time: 0.093 seconds.

tnom = 27
temp = 27
method = modified trap
totiter = 3458
traniter = 3452
tranpoints = 1602
accept = 1423
rejected = 179
matrix size = 13
fillins = 0
solver = Normal
Matrix Compiler1: 960 bytes object code size  0.2/0.1/[0.1]
Matrix Compiler2: 1.31 KB object code size  0.1/0.1/[0.1]


