Circuit: *** SPICE deck for cell 3input_NOR_size2_2Cinv_400ps_sim{lay} from library DDII_P1-Std_Cell_Library

Direct Newton iteration for .op point succeeded.

tpdf=5.91036e-010 FROM 2e-010 TO 7.91036e-010
tpdr=1.33614e-010 FROM 2.06e-008 TO 2.07336e-008


Date: Wed Jul 08 22:10:12 2020
Total elapsed time: 0.413 seconds.

tnom = 27
temp = 27
method = modified trap
totiter = 5235
traniter = 5229
tranpoints = 1898
accept = 1633
rejected = 265
matrix size = 35
fillins = 0
solver = Normal
Matrix Compiler1: 3.39 KB object code size  2.2/1.1/[0.6]
Matrix Compiler2: 3.92 KB object code size  1.1/1.2/[0.7]


