Circuit: *** SPICE deck for cell 3input_NOR_size2_2Cinv_0ps_sim{lay} from library DDII_P1-Std_Cell_Library

Limiting rise time of source va to 2e-009
Limiting fall time of source va to 2e-009
Direct Newton iteration for .op point succeeded.

tpdf=9.83728e-010 FROM 1e-009 TO 1.98373e-009
tpdr=-3.298e-011 FROM 2.3e-008 TO 2.2967e-008


Date: Wed Jul 08 22:06:19 2020
Total elapsed time: 0.398 seconds.

tnom = 27
temp = 27
method = modified trap
totiter = 4965
traniter = 4959
tranpoints = 1827
accept = 1600
rejected = 227
matrix size = 35
fillins = 0
solver = Normal
Matrix Compiler1: 3.39 KB object code size  2.2/1.1/[0.6]
Matrix Compiler2: 3.92 KB object code size  1.1/1.2/[0.6]


