Circuit: *** SPICE deck for cell 3input_NOR_size2_8Cinv_400ps_sim{lay} from library DDII_P1-Std_Cell_Library

Direct Newton iteration for .op point succeeded.

tpdf=1.79426e-009 FROM 2e-010 TO 1.99426e-009
tpdr=4.84508e-010 FROM 2.06e-008 TO 2.10845e-008


Date: Wed Jul 08 22:10:55 2020
Total elapsed time: 0.306 seconds.

tnom = 27
temp = 27
method = modified trap
totiter = 4988
traniter = 4982
tranpoints = 1888
accept = 1620
rejected = 268
matrix size = 35
fillins = 0
solver = Normal
Matrix Compiler1: 3.39 KB object code size  0.7/0.4/[0.2]
Matrix Compiler2: 3.92 KB object code size  0.4/0.4/[0.2]


