Circuit: *** SPICE deck for cell 3input_NOR_size2_1Cinv_800ps_sim{lay} from library DDII_P1-Std_Cell_Library

Direct Newton iteration for .op point succeeded.

tpdf=4.88405e-010 FROM 4e-010 TO 8.88405e-010
tpdr=2.95349e-011 FROM 2.12e-008 TO 2.12295e-008


Date: Wed Jul 08 22:12:04 2020
Total elapsed time: 0.415 seconds.

tnom = 27
temp = 27
method = modified trap
totiter = 5203
traniter = 5197
tranpoints = 1858
accept = 1608
rejected = 250
matrix size = 35
fillins = 0
solver = Normal
Matrix Compiler1: 3.39 KB object code size  0.7/0.4/[0.2]
Matrix Compiler2: 3.92 KB object code size  0.4/0.4/[0.2]


