Circuit: *** SPICE deck for cell 3input_NOR_size2_1Cinv_400ps_sim{lay} from library DDII_P1-Std_Cell_Library

Direct Newton iteration for .op point succeeded.

tpdf=3.94494e-010 FROM 2e-010 TO 5.94494e-010
tpdr=7.05747e-011 FROM 2.06e-008 TO 2.06706e-008


Date: Wed Jul 08 22:09:54 2020
Total elapsed time: 0.447 seconds.

tnom = 27
temp = 27
method = modified trap
totiter = 5010
traniter = 5004
tranpoints = 1956
accept = 1699
rejected = 257
matrix size = 35
fillins = 0
solver = Normal
Matrix Compiler1: 3.39 KB object code size  0.7/0.3/[0.2]
Matrix Compiler2: 3.92 KB object code size  0.4/0.4/[0.2]


