Circuit: *** SPICE deck for cell 3input_NOR_size2_8Cinv_800ps_sim{lay} from library DDII_P1-Std_Cell_Library

Direct Newton iteration for .op point succeeded.

tpdf=1.85214e-009 FROM 4e-010 TO 2.25214e-009
tpdr=4.65934e-010 FROM 2.12e-008 TO 2.16659e-008


Date: Wed Jul 08 22:11:14 2020
Total elapsed time: 0.366 seconds.

tnom = 27
temp = 27
method = modified trap
totiter = 4750
traniter = 4744
tranpoints = 1693
accept = 1454
rejected = 239
matrix size = 35
fillins = 0
solver = Normal
Matrix Compiler1: 3.39 KB object code size  0.7/0.4/[0.2]
Matrix Compiler2: 3.92 KB object code size  0.4/0.4/[0.2]


