Circuit: *** SPICE deck for cell 3input_NOR_size2_8Cinv_100ps_sim{lay} from library DDII_P1-Std_Cell_Library

Direct Newton iteration for .op point succeeded.

tpdf=1.76099e-009 FROM 5e-011 TO 1.81099e-009
tpdr=4.96743e-010 FROM 2.015e-008 TO 2.06467e-008


Date: Wed Jul 08 22:08:40 2020
Total elapsed time: 0.380 seconds.

tnom = 27
temp = 27
method = modified trap
totiter = 4626
traniter = 4620
tranpoints = 1897
accept = 1649
rejected = 248
matrix size = 35
fillins = 0
solver = Normal
Matrix Compiler1: 3.39 KB object code size  1.7/0.8/[0.4]
Matrix Compiler2: 3.92 KB object code size  0.9/1.0/[0.5]


