Circuit: *** SPICE deck for cell 3input_NOR_size2_4Cinv_400ps_sim{lay} from library DDII_P1-Std_Cell_Library

Direct Newton iteration for .op point succeeded.

tpdf=9.94362e-010 FROM 2e-010 TO 1.19436e-009
tpdr=2.48029e-010 FROM 2.06e-008 TO 2.0848e-008


Date: Wed Jul 08 22:10:29 2020
Total elapsed time: 0.392 seconds.

tnom = 27
temp = 27
method = modified trap
totiter = 5181
traniter = 5175
tranpoints = 1957
accept = 1682
rejected = 275
matrix size = 35
fillins = 0
solver = Normal
Matrix Compiler1: 3.39 KB object code size  0.8/0.4/[0.2]
Matrix Compiler2: 3.92 KB object code size  0.4/0.5/[0.3]


