Circuit: *** SPICE deck for cell 3input_NOR_size2_1Cinv_100ps_sim{lay} from library DDII_P1-Std_Cell_Library

Direct Newton iteration for .op point succeeded.

tpdf=3.41543e-010 FROM 5e-011 TO 3.91543e-010
tpdr=8.42204e-011 FROM 2.015e-008 TO 2.02342e-008


Date: Wed Jul 08 22:09:34 2020
Total elapsed time: 0.340 seconds.

tnom = 27
temp = 27
method = modified trap
totiter = 4957
traniter = 4951
tranpoints = 1950
accept = 1700
rejected = 250
matrix size = 35
fillins = 0
solver = Normal
Matrix Compiler1: 3.39 KB object code size  0.7/0.3/[0.2]
Matrix Compiler2: 3.92 KB object code size  0.4/0.4/[0.2]


