Circuit: *** SPICE deck for cell 3input_NOR_size2_4Cinv_0ps_sim{lay} from library DDII_P1-Std_Cell_Library

Limiting rise time of source va to 2e-009
Limiting fall time of source va to 2e-009
Direct Newton iteration for .op point succeeded.

tpdf=1.32986e-009 FROM 1e-009 TO 2.32986e-009
tpdr=1.41144e-010 FROM 2.3e-008 TO 2.31411e-008


Date: Wed Jul 08 22:08:07 2020
Total elapsed time: 0.445 seconds.

tnom = 27
temp = 27
method = modified trap
totiter = 4813
traniter = 4807
tranpoints = 1740
accept = 1493
rejected = 247
matrix size = 35
fillins = 0
solver = Normal
Matrix Compiler1: 3.39 KB object code size  0.9/0.5/[0.3]
Matrix Compiler2: 3.92 KB object code size  0.5/0.5/[0.3]


