Circuit: *** SPICE deck for cell 3input_NOR_size2_2Cinv_800ps_sim{lay} from library DDII_P1-Std_Cell_Library

Direct Newton iteration for .op point succeeded.

tpdf=6.74705e-010 FROM 4e-010 TO 1.07471e-009
tpdr=1.07891e-010 FROM 2.12e-008 TO 2.13079e-008


Date: Wed Jul 08 22:11:48 2020
Total elapsed time: 0.355 seconds.

tnom = 27
temp = 27
method = modified trap
totiter = 4642
traniter = 4636
tranpoints = 1907
accept = 1629
rejected = 278
matrix size = 35
fillins = 0
solver = Normal
Matrix Compiler1: 3.39 KB object code size  2.1/0.8/[0.5]
Matrix Compiler2: 3.92 KB object code size  1.0/0.9/[0.6]


