Circuit: *** SPICE deck for cell 3input_NOR_size2_4Cinv_800ps_sim{lay} from library DDII_P1-Std_Cell_Library

Direct Newton iteration for .op point succeeded.

tpdf=1.05999e-009 FROM 4e-010 TO 1.45999e-009
tpdr=2.36477e-010 FROM 2.12e-008 TO 2.14365e-008


Date: Wed Jul 08 22:11:32 2020
Total elapsed time: 0.414 seconds.

tnom = 27
temp = 27
method = modified trap
totiter = 5066
traniter = 5060
tranpoints = 1831
accept = 1583
rejected = 248
matrix size = 35
fillins = 0
solver = Normal
Matrix Compiler1: 3.39 KB object code size  2.4/1.1/[0.6]
Matrix Compiler2: 3.92 KB object code size  1.1/1.3/[0.6]


