Circuit: *** SPICE deck for cell 3input_NOR_size2_4Cinv_100ps_sim{lay} from library DDII_P1-Std_Cell_Library

Direct Newton iteration for .op point succeeded.

tpdf=9.57151e-010 FROM 5e-011 TO 1.00715e-009
tpdr=2.62941e-010 FROM 2.015e-008 TO 2.04129e-008


Date: Wed Jul 08 22:09:00 2020
Total elapsed time: 0.424 seconds.

tnom = 27
temp = 27
method = modified trap
totiter = 4901
traniter = 4895
tranpoints = 2000
accept = 1735
rejected = 265
matrix size = 35
fillins = 0
solver = Normal
Matrix Compiler1: 3.39 KB object code size  1.7/0.8/[0.5]
Matrix Compiler2: 3.92 KB object code size  0.9/1.0/[0.5]


