Circuit: *** SPICE deck for cell 3input_NOR_size2_1Cinv_0ps_sim{lay} from library DDII_P1-Std_Cell_Library

Limiting rise time of source va to 2e-009
Limiting fall time of source va to 2e-009
Direct Newton iteration for .op point succeeded.

tpdf=8.02686e-010 FROM 1e-009 TO 1.80269e-009
tpdr=-1.43853e-010 FROM 2.3e-008 TO 2.28561e-008


Date: Wed Jul 08 22:05:59 2020
Total elapsed time: 0.491 seconds.

tnom = 27
temp = 27
method = modified trap
totiter = 5033
traniter = 5027
tranpoints = 1781
accept = 1542
rejected = 239
matrix size = 35
fillins = 0
solver = Normal
Matrix Compiler1: 3.39 KB object code size  1.8/0.8/[0.4]
Matrix Compiler2: 3.92 KB object code size  0.9/0.9/[0.5]


