Circuit: *** SPICE deck for cell function_6_size4_1Cinv_0ps_tpdr_sim{lay} from library DDII_P1-Std_Cell_Library

Limiting rise time of source vx to 2e-009
Limiting fall time of source vx to 2e-009
Direct Newton iteration for .op point succeeded.

tpdr=6.60356e-010 FROM 1e-009 TO 1.66036e-009


Date: Wed Jul 08 18:22:01 2020
Total elapsed time: 0.331 seconds.

tnom = 27
temp = 27
method = modified trap
totiter = 5624
traniter = 5599
tranpoints = 1949
accept = 1681
rejected = 268
matrix size = 73
fillins = 2
solver = Normal
Matrix Compiler1: 8.67 KB object code size  1.4/0.7/[0.4]
Matrix Compiler2: 9.16 KB object code size  0.7/0.7/[0.5]


