Circuit: *** SPICE deck for cell function_6_size4_1Cinv_0ps_tpdr_sim{lay} from library DDII_P1-Std_Cell_Library

Limiting rise time of source vx to 2e-009
Limiting fall time of source vx to 2e-009
Direct Newton iteration for .op point succeeded.

tpdr=5.92793e-010 FROM 1e-009 TO 1.59279e-009


Date: Wed Jul 08 18:19:36 2020
Total elapsed time: 0.338 seconds.

tnom = 27
temp = 27
method = modified trap
totiter = 5832
traniter = 5807
tranpoints = 1905
accept = 1636
rejected = 269
matrix size = 73
fillins = 2
solver = Normal
Matrix Compiler1: 8.67 KB object code size  1.4/0.7/[0.4]
Matrix Compiler2: 9.16 KB object code size  0.7/0.7/[0.4]


