Circuit: *** SPICE deck for cell function_4_size2_1Cinv_400ps_tpdf_sim{lay} from library DDII_P1-Std_Cell_Library

Direct Newton iteration for .op point succeeded.

tpdf=2.93852e-010 FROM 2e-010 TO 4.93852e-010


Date: Wed Jul 08 23:20:26 2020
Total elapsed time: 0.190 seconds.

tnom = 27
temp = 27
method = modified trap
totiter = 4906
traniter = 4889
tranpoints = 1937
accept = 1674
rejected = 263
matrix size = 46
fillins = 0
solver = Normal
Matrix Compiler1: 4.92 KB object code size  0.8/0.4/[0.2]
Matrix Compiler2: 5.43 KB object code size  0.4/0.5/[0.3]


