Circuit: *** SPICE deck for cell function_4_size2_1Cinv_800ps_tpdf_sim{lay} from library DDII_P1-Std_Cell_Library

Direct Newton iteration for .op point succeeded.

tpdf=3.78422e-010 FROM 4e-010 TO 7.78422e-010


Date: Wed Jul 08 23:22:18 2020
Total elapsed time: 0.203 seconds.

tnom = 27
temp = 27
method = modified trap
totiter = 4489
traniter = 4472
tranpoints = 1851
accept = 1637
rejected = 214
matrix size = 46
fillins = 0
solver = Normal
Matrix Compiler1: 4.92 KB object code size  0.8/0.5/[0.2]
Matrix Compiler2: 5.43 KB object code size  0.5/0.5/[0.3]


