Circuit: *** SPICE deck for cell function_4_size2_1Cinv_100ps_tpdf_sim{lay} from library DDII_P1-Std_Cell_Library

Direct Newton iteration for .op point succeeded.

tpdf=2.43963e-010 FROM 5e-011 TO 2.93963e-010


Date: Wed Jul 08 23:20:09 2020
Total elapsed time: 0.187 seconds.

tnom = 27
temp = 27
method = modified trap
totiter = 4596
traniter = 4579
tranpoints = 1906
accept = 1667
rejected = 239
matrix size = 46
fillins = 0
solver = Normal
Matrix Compiler1: 4.92 KB object code size  0.8/0.4/[0.3]
Matrix Compiler2: 5.43 KB object code size  0.4/0.7/[0.3]


