Circuit: *** SPICE deck for cell function_4_size2_2Cinv_800ps_tpdf_sim{lay} from library DDII_P1-Std_Cell_Library

Direct Newton iteration for .op point succeeded.

tpdf=5.16643e-010 FROM 4e-010 TO 9.16643e-010


Date: Wed Jul 08 23:22:01 2020
Total elapsed time: 0.204 seconds.

tnom = 27
temp = 27
method = modified trap
totiter = 4719
traniter = 4702
tranpoints = 1895
accept = 1650
rejected = 245
matrix size = 46
fillins = 0
solver = Normal
Matrix Compiler1: 4.92 KB object code size  0.8/0.7/[0.2]
Matrix Compiler2: 5.43 KB object code size  0.4/0.5/[0.3]


