Circuit: *** SPICE deck for cell function_4_size2_2Cinv_0ps_tpdf_sim{lay} from library DDII_P1-Std_Cell_Library

Limiting rise time of source vx to 2e-009
Limiting fall time of source vx to 2e-009
Direct Newton iteration for .op point succeeded.

tpdf=7.83317e-010 FROM 1e-009 TO 1.78332e-009


Date: Wed Jul 08 23:17:04 2020
Total elapsed time: 0.187 seconds.

tnom = 27
temp = 27
method = modified trap
totiter = 4721
traniter = 4704
tranpoints = 1787
accept = 1548
rejected = 239
matrix size = 46
fillins = 0
solver = Normal
Matrix Compiler1: 4.92 KB object code size  0.8/0.4/[0.2]
Matrix Compiler2: 5.43 KB object code size  0.4/0.5/[0.3]


