Circuit: *** SPICE deck for cell function_4_size2_4Cinv_400ps_tpdf_sim{lay} from library DDII_P1-Std_Cell_Library

Direct Newton iteration for .op point succeeded.

tpdf=7.50177e-010 FROM 2e-010 TO 9.50177e-010


Date: Wed Jul 08 23:20:58 2020
Total elapsed time: 0.203 seconds.

tnom = 27
temp = 27
method = modified trap
totiter = 4974
traniter = 4957
tranpoints = 1855
accept = 1615
rejected = 240
matrix size = 46
fillins = 0
solver = Normal
Matrix Compiler1: 4.92 KB object code size  0.8/0.4/[0.3]
Matrix Compiler2: 5.43 KB object code size  0.4/0.6/[0.3]


