Circuit: *** SPICE deck for cell function_4_size2_8Cinv_400ps_tpdf_sim{lay} from library DDII_P1-Std_Cell_Library

Direct Newton iteration for .op point succeeded.

tpdf=1.34947e-009 FROM 2e-010 TO 1.54947e-009


Date: Wed Jul 08 23:21:14 2020
Total elapsed time: 0.203 seconds.

tnom = 27
temp = 27
method = modified trap
totiter = 4344
traniter = 4327
tranpoints = 1802
accept = 1554
rejected = 248
matrix size = 46
fillins = 0
solver = Normal
Matrix Compiler1: 4.92 KB object code size  0.8/0.4/[0.2]
Matrix Compiler2: 5.43 KB object code size  0.4/0.5/[0.3]


