Circuit: *** SPICE deck for cell function_4_size2_2Cinv_400ps_tpdf_sim{lay} from library DDII_P1-Std_Cell_Library

Direct Newton iteration for .op point succeeded.

tpdf=4.40244e-010 FROM 2e-010 TO 6.40244e-010


Date: Wed Jul 08 23:20:45 2020
Total elapsed time: 0.203 seconds.

tnom = 27
temp = 27
method = modified trap
totiter = 4766
traniter = 4749
tranpoints = 1975
accept = 1697
rejected = 278
matrix size = 46
fillins = 0
solver = Normal
Matrix Compiler1: 4.92 KB object code size  0.8/0.4/[0.2]
Matrix Compiler2: 5.43 KB object code size  0.4/0.4/[0.3]


