Circuit: *** SPICE deck for cell inverter_size8_1Cinv_100ps_sim{lay} from library DDII_P1-Std_Cell_Library

Direct Newton iteration for .op point succeeded.

tpdf=4.30783e-010 FROM 5e-011 TO 4.80783e-010
tpdr=1.49394e-010 FROM 2.015e-008 TO 2.02994e-008


Date: Wed Jul 08 21:21:47 2020
Total elapsed time: 0.102 seconds.

tnom = 27
temp = 27
method = modified trap
totiter = 4426
traniter = 4420
tranpoints = 2040
accept = 1766
rejected = 274
matrix size = 13
fillins = 0
solver = Normal
Matrix Compiler1: 960 bytes object code size  0.2/0.1/[0.1]
Matrix Compiler2: 1.31 KB object code size  0.1/0.1/[0.1]


