Circuit: *** SPICE deck for cell inverter_size8_1Cinv_100ps_sim{lay} from library DDII_P1-Std_Cell_Library

Direct Newton iteration for .op point succeeded.

tpdf=1.27649e-010 FROM 5e-011 TO 1.77649e-010
tpdr=5.08357e-011 FROM 2.015e-008 TO 2.02008e-008


Date: Wed Jul 08 21:22:52 2020
Total elapsed time: 0.114 seconds.

tnom = 27
temp = 27
method = modified trap
totiter = 4628
traniter = 4622
tranpoints = 2100
accept = 1828
rejected = 272
matrix size = 13
fillins = 0
solver = Normal
Matrix Compiler1: 960 bytes object code size  0.2/0.1/[0.1]
Matrix Compiler2: 1.31 KB object code size  0.1/0.2/[0.1]


