Circuit: *** SPICE deck for cell inverter_size8_1Cinv_100ps_sim{lay} from library DDII_P1-Std_Cell_Library

Direct Newton iteration for .op point succeeded.

tpdf=7.83796e-011 FROM 5e-011 TO 1.2838e-010
tpdr=3.20593e-011 FROM 2.015e-008 TO 2.01821e-008


Date: Wed Jul 08 21:22:25 2020
Total elapsed time: 0.106 seconds.

tnom = 27
temp = 27
method = modified trap
totiter = 4539
traniter = 4533
tranpoints = 2037
accept = 1758
rejected = 279
matrix size = 13
fillins = 0
solver = Normal
Matrix Compiler1: 960 bytes object code size  0.2/0.1/[0.1]
Matrix Compiler2: 1.31 KB object code size  0.1/0.2/[0.1]


