Circuit: *** SPICE deck for cell inverter_size4_1Cinv_100ps_sim{lay} from library DDII_P1-Std_Cell_Library

Direct Newton iteration for .op point succeeded.

tpdf=1.28271e-010 FROM 5e-011 TO 1.78271e-010
tpdr=5.05777e-011 FROM 2.015e-008 TO 2.02006e-008


Date: Wed Jul 08 21:00:43 2020
Total elapsed time: 0.099 seconds.

tnom = 27
temp = 27
method = modified trap
totiter = 4378
traniter = 4372
tranpoints = 1927
accept = 1680
rejected = 247
matrix size = 13
fillins = 0
solver = Normal
Matrix Compiler1: 960 bytes object code size  0.2/0.1/[0.1]
Matrix Compiler2: 1.31 KB object code size  0.1/0.1/[0.1]


