Circuit: *** SPICE deck for cell inverter_size4_1Cinv_100ps_sim{lay} from library DDII_P1-Std_Cell_Library

Direct Newton iteration for .op point succeeded.

tpdf=2.29438e-010 FROM 5e-011 TO 2.79438e-010
tpdr=8.37669e-011 FROM 2.015e-008 TO 2.02338e-008


Date: Wed Jul 08 21:01:15 2020
Total elapsed time: 0.097 seconds.

tnom = 27
temp = 27
method = modified trap
totiter = 4277
traniter = 4271
tranpoints = 1976
accept = 1725
rejected = 251
matrix size = 13
fillins = 0
solver = Normal
Matrix Compiler1: 960 bytes object code size  0.2/0.1/[0.1]
Matrix Compiler2: 1.31 KB object code size  0.1/0.2/[0.1]


