Circuit: *** SPICE deck for cell inverter_size4_1Cinv_100ps_sim{lay} from library DDII_P1-Std_Cell_Library

Direct Newton iteration for .op point succeeded.

tpdf=8.41132e-010 FROM 5e-011 TO 8.91132e-010
tpdr=2.87851e-010 FROM 2.015e-008 TO 2.04379e-008


Date: Wed Jul 08 20:58:58 2020
Total elapsed time: 0.097 seconds.

tnom = 27
temp = 27
method = modified trap
totiter = 4005
traniter = 3999
tranpoints = 1856
accept = 1596
rejected = 260
matrix size = 13
fillins = 0
solver = Normal
Matrix Compiler1: 960 bytes object code size  0.2/0.1/[0.1]
Matrix Compiler2: 1.31 KB object code size  0.1/0.2/[0.1]


