Circuit: *** SPICE deck for cell inverter_size4_1Cinv_100ps_sim{lay} from library DDII_P1-Std_Cell_Library

Direct Newton iteration for .op point succeeded.

tpdf=4.33323e-010 FROM 5e-011 TO 4.83323e-010
tpdr=1.51297e-010 FROM 2.015e-008 TO 2.03013e-008


Date: Wed Jul 08 21:01:45 2020
Total elapsed time: 0.085 seconds.

tnom = 27
temp = 27
method = modified trap
totiter = 4012
traniter = 4006
tranpoints = 1856
accept = 1625
rejected = 231
matrix size = 13
fillins = 0
solver = Normal
Matrix Compiler1: 960 bytes object code size  0.2/0.1/[0.1]
Matrix Compiler2: 1.31 KB object code size  0.1/0.1/[0.1]


