Circuit: *** SPICE deck for cell 3input_NOR_size4_8Cinv_400ps_sim{lay} from library DDII_P1-Std_Cell_Library

Direct Newton iteration for .op point succeeded.

tpdf=9.81251e-010 FROM 2e-010 TO 1.18125e-009
tpdr=2.48245e-010 FROM 2.06e-008 TO 2.08482e-008


Date: Wed Jul 08 22:21:59 2020
Total elapsed time: 0.421 seconds.

tnom = 27
temp = 27
method = modified trap
totiter = 5650
traniter = 5644
tranpoints = 2101
accept = 1794
rejected = 307
matrix size = 35
fillins = 0
solver = Normal
Matrix Compiler1: 3.39 KB object code size  2.2/1.0/[0.5]
Matrix Compiler2: 3.92 KB object code size  1.1/1.1/[0.5]


