Circuit: *** SPICE deck for cell 3input_NOR_size4_4Cinv_100ps_sim{lay} from library DDII_P1-Std_Cell_Library

Direct Newton iteration for .op point succeeded.

tpdf=5.39488e-010 FROM 5e-011 TO 5.89488e-010
tpdr=1.43694e-010 FROM 2.015e-008 TO 2.02937e-008


Date: Wed Jul 08 22:20:22 2020
Total elapsed time: 0.383 seconds.

tnom = 27
temp = 27
method = modified trap
totiter = 5222
traniter = 5216
tranpoints = 2160
accept = 1846
rejected = 314
matrix size = 35
fillins = 0
solver = Normal
Matrix Compiler1: 3.39 KB object code size  0.7/0.3/[0.2]
Matrix Compiler2: 3.92 KB object code size  0.3/0.4/[0.2]


