Circuit: *** SPICE deck for cell 3input_NOR_size4_2Cinv_100ps_sim{lay} from library DDII_P1-Std_Cell_Library

Direct Newton iteration for .op point succeeded.

tpdf=3.36829e-010 FROM 5e-011 TO 3.86829e-010
tpdr=8.49669e-011 FROM 2.015e-008 TO 2.0235e-008


Date: Wed Jul 08 22:20:37 2020
Total elapsed time: 0.409 seconds.

tnom = 27
temp = 27
method = modified trap
totiter = 5489
traniter = 5483
tranpoints = 2225
accept = 1917
rejected = 308
matrix size = 35
fillins = 0
solver = Normal
Matrix Compiler1: 3.39 KB object code size  0.8/0.4/[0.2]
Matrix Compiler2: 3.92 KB object code size  0.4/0.5/[0.2]


