Circuit: *** SPICE deck for cell 3input_NOR_size4_1Cinv_0ps_sim{lay} from library DDII_P1-Std_Cell_Library

Limiting rise time of source va to 2e-009
Limiting fall time of source va to 2e-009
Direct Newton iteration for .op point succeeded.

tpdf=7.02417e-010 FROM 1e-009 TO 1.70242e-009
tpdr=-2.12099e-010 FROM 2.3e-008 TO 2.27879e-008


Date: Wed Jul 08 22:18:48 2020
Total elapsed time: 0.443 seconds.

tnom = 27
temp = 27
method = modified trap
totiter = 5391
traniter = 5385
tranpoints = 1960
accept = 1676
rejected = 284
matrix size = 35
fillins = 0
solver = Normal
Matrix Compiler1: 3.39 KB object code size  2.2/1.1/[0.6]
Matrix Compiler2: 3.92 KB object code size  1.1/1.3/[0.7]


