Circuit: *** SPICE deck for cell 3input_NOR_size4_8Cinv_800ps_sim{lay} from library DDII_P1-Std_Cell_Library

Direct Newton iteration for .op point succeeded.

tpdf=1.05058e-009 FROM 4e-010 TO 1.45058e-009
tpdr=2.35829e-010 FROM 2.12e-008 TO 2.14358e-008


Date: Wed Jul 08 22:22:15 2020
Total elapsed time: 0.418 seconds.

tnom = 27
temp = 27
method = modified trap
totiter = 4851
traniter = 4845
tranpoints = 1967
accept = 1683
rejected = 284
matrix size = 35
fillins = 0
solver = Normal
Matrix Compiler1: 3.39 KB object code size  1.8/0.8/[0.5]
Matrix Compiler2: 3.92 KB object code size  0.9/1.0/[0.6]


