Circuit: *** SPICE deck for cell 3input_NOR_size4_4Cinv_0ps_sim{lay} from library DDII_P1-Std_Cell_Library

Limiting rise time of source va to 2e-009
Limiting fall time of source va to 2e-009
Direct Newton iteration for .op point succeeded.

tpdf=9.77584e-010 FROM 1e-009 TO 1.97758e-009
tpdr=-3.18707e-011 FROM 2.3e-008 TO 2.29681e-008


Date: Wed Jul 08 22:19:26 2020
Total elapsed time: 0.414 seconds.

tnom = 27
temp = 27
method = modified trap
totiter = 4971
traniter = 4965
tranpoints = 1805
accept = 1565
rejected = 240
matrix size = 35
fillins = 0
solver = Normal
Matrix Compiler1: 3.39 KB object code size  2.1/1.0/[0.6]
Matrix Compiler2: 3.92 KB object code size  1.1/1.2/[0.6]


