Circuit: *** SPICE deck for cell 3input_NOR_size4_1Cinv_800ps_sim{lay} from library DDII_P1-Std_Cell_Library

Direct Newton iteration for .op point succeeded.

tpdf=4.00421e-010 FROM 4e-010 TO 8.00421e-010
tpdr=-1.81337e-011 FROM 2.12e-008 TO 2.11819e-008


Date: Wed Jul 08 22:23:08 2020
Total elapsed time: 0.430 seconds.

tnom = 27
temp = 27
method = modified trap
totiter = 4940
traniter = 4934
tranpoints = 1947
accept = 1671
rejected = 276
matrix size = 35
fillins = 0
solver = Normal
Matrix Compiler1: 3.39 KB object code size  2.3/1.1/[0.6]
Matrix Compiler2: 3.92 KB object code size  1.1/1.3/[0.6]


