Circuit: *** SPICE deck for cell 3input_NOR_size4_4Cinv_400ps_sim{lay} from library DDII_P1-Std_Cell_Library

Direct Newton iteration for .op point succeeded.

tpdf=5.84973e-010 FROM 2e-010 TO 7.84973e-010
tpdr=1.32919e-010 FROM 2.06e-008 TO 2.07329e-008


Date: Wed Jul 08 22:21:42 2020
Total elapsed time: 0.407 seconds.

tnom = 27
temp = 27
method = modified trap
totiter = 5341
traniter = 5335
tranpoints = 1991
accept = 1731
rejected = 260
matrix size = 35
fillins = 0
solver = Normal
Matrix Compiler1: 3.39 KB object code size  1.1/0.5/[0.3]
Matrix Compiler2: 3.92 KB object code size  0.6/0.6/[0.4]


