Circuit: *** SPICE deck for cell 3input_NOR_size4_1Cinv_100ps_sim{lay} from library DDII_P1-Std_Cell_Library

Direct Newton iteration for .op point succeeded.

tpdf=2.35193e-010 FROM 5e-011 TO 2.85193e-010
tpdr=5.53591e-011 FROM 2.015e-008 TO 2.02054e-008


Date: Wed Jul 08 22:20:53 2020
Total elapsed time: 0.400 seconds.

tnom = 27
temp = 27
method = modified trap
totiter = 5639
traniter = 5633
tranpoints = 2121
accept = 1833
rejected = 288
matrix size = 35
fillins = 0
solver = Normal
Matrix Compiler1: 3.39 KB object code size  0.8/0.4/[0.2]
Matrix Compiler2: 3.92 KB object code size  0.4/0.5/[0.2]


