Circuit: *** SPICE deck for cell 3input_NOR_size4_1Cinv_400ps_sim{lay} from library DDII_P1-Std_Cell_Library

Direct Newton iteration for .op point succeeded.

tpdf=2.96108e-010 FROM 2e-010 TO 4.96108e-010
tpdr=3.33368e-011 FROM 2.06e-008 TO 2.06333e-008


Date: Wed Jul 08 22:21:10 2020
Total elapsed time: 0.437 seconds.

tnom = 27
temp = 27
method = modified trap
totiter = 4661
traniter = 4655
tranpoints = 1921
accept = 1695
rejected = 226
matrix size = 35
fillins = 0
solver = Normal
Matrix Compiler1: 3.39 KB object code size  0.7/0.3/[0.2]
Matrix Compiler2: 3.92 KB object code size  0.4/0.4/[0.2]


