Circuit: *** SPICE deck for cell 3input_NOR_size4_2Cinv_800ps_sim{lay} from library DDII_P1-Std_Cell_Library

Direct Newton iteration for .op point succeeded.

tpdf=4.87898e-010 FROM 4e-010 TO 8.87898e-010
tpdr=2.958e-011 FROM 2.12e-008 TO 2.12296e-008


Date: Wed Jul 08 22:22:52 2020
Total elapsed time: 0.387 seconds.

tnom = 27
temp = 27
method = modified trap
totiter = 5218
traniter = 5212
tranpoints = 1933
accept = 1685
rejected = 248
matrix size = 35
fillins = 0
solver = Normal
Matrix Compiler1: 3.39 KB object code size  1.1/0.6/[0.3]
Matrix Compiler2: 3.92 KB object code size  0.6/0.6/[0.3]


