Circuit: *** SPICE deck for cell 3input_NOR_size4_2Cinv_0ps_sim{lay} from library DDII_P1-Std_Cell_Library

Limiting rise time of source va to 2e-009
Limiting fall time of source va to 2e-009
Direct Newton iteration for .op point succeeded.

tpdf=7.96499e-010 FROM 1e-009 TO 1.7965e-009
tpdr=-1.41945e-010 FROM 2.3e-008 TO 2.28581e-008


Date: Wed Jul 08 22:19:08 2020
Total elapsed time: 0.289 seconds.

tnom = 27
temp = 27
method = modified trap
totiter = 5067
traniter = 5061
tranpoints = 1830
accept = 1581
rejected = 249
matrix size = 35
fillins = 0
solver = Normal
Matrix Compiler1: 3.39 KB object code size  1.4/0.4/[0.2]
Matrix Compiler2: 3.92 KB object code size  1.1/0.4/[0.2]


