Circuit: *** SPICE deck for cell 3input_NOR_size4_8Cinv_0ps_sim{lay} from library DDII_P1-Std_Cell_Library

Limiting rise time of source va to 2e-009
Limiting fall time of source va to 2e-009
Direct Newton iteration for .op point succeeded.

tpdf=1.32885e-009 FROM 1e-009 TO 2.32885e-009
tpdr=1.43226e-010 FROM 2.3e-008 TO 2.31432e-008


Date: Wed Jul 08 22:19:42 2020
Total elapsed time: 0.357 seconds.

tnom = 27
temp = 27
method = modified trap
totiter = 5010
traniter = 5004
tranpoints = 1863
accept = 1603
rejected = 260
matrix size = 35
fillins = 0
solver = Normal
Matrix Compiler1: 3.39 KB object code size  0.9/0.4/[0.2]
Matrix Compiler2: 3.92 KB object code size  0.4/0.5/[0.3]


