Circuit: *** SPICE deck for cell 3input_NOR_size4_8Cinv_100ps_sim{lay} from library DDII_P1-Std_Cell_Library

Direct Newton iteration for .op point succeeded.

tpdf=9.45689e-010 FROM 5e-011 TO 9.95689e-010
tpdr=2.61303e-010 FROM 2.015e-008 TO 2.04113e-008


Date: Wed Jul 08 22:20:03 2020
Total elapsed time: 0.503 seconds.

tnom = 27
temp = 27
method = modified trap
totiter = 5564
traniter = 5558
tranpoints = 2133
accept = 1811
rejected = 322
matrix size = 35
fillins = 0
solver = Normal
Matrix Compiler1: 3.39 KB object code size  1.5/0.3/[0.2]
Matrix Compiler2: 3.92 KB object code size  0.3/0.4/[0.2]


