Circuit: *** SPICE deck for cell function_6_size1_1Cinv_400ps_tpdr_sim{lay} from library DDII_P1-Std_Cell_Library

Direct Newton iteration for .op point succeeded.

tpdr=7.88169e-010 FROM 2e-010 TO 9.88169e-010


Date: Wed Jul 08 17:23:25 2020
Total elapsed time: 0.321 seconds.

tnom = 27
temp = 27
method = modified trap
totiter = 5244
traniter = 5220
tranpoints = 1923
accept = 1681
rejected = 242
matrix size = 73
fillins = 2
solver = Normal
Matrix Compiler1: 8.67 KB object code size  1.3/0.7/[0.4]
Matrix Compiler2: 9.16 KB object code size  0.7/0.7/[0.4]


