Circuit: *** SPICE deck for cell function_6_size1_1Cinv_400ps_tpdr_sim{lay} from library DDII_P1-Std_Cell_Library

Direct Newton iteration for .op point succeeded.

tpdr=2.61026e-009 FROM 2e-010 TO 2.81026e-009


Date: Wed Jul 08 17:20:19 2020
Total elapsed time: 0.287 seconds.

tnom = 27
temp = 27
method = modified trap
totiter = 4480
traniter = 4456
tranpoints = 1706
accept = 1534
rejected = 172
matrix size = 73
fillins = 2
solver = Normal
Matrix Compiler1: 8.67 KB object code size  1.4/0.7/[0.4]
Matrix Compiler2: 9.16 KB object code size  0.7/0.7/[0.4]


