Circuit: *** SPICE deck for cell function_6_size1_1Cinv_400ps_tpdr_sim{lay} from library DDII_P1-Std_Cell_Library

Direct Newton iteration for .op point succeeded.

tpdr=4.84167e-010 FROM 2e-010 TO 6.84167e-010


Date: Wed Jul 08 17:22:15 2020
Total elapsed time: 0.637 seconds.

tnom = 27
temp = 27
method = modified trap
totiter = 5013
traniter = 4989
tranpoints = 1920
accept = 1697
rejected = 223
matrix size = 73
fillins = 2
solver = Normal
Matrix Compiler1: 8.67 KB object code size  2.5/0.7/[0.4]
Matrix Compiler2: 9.16 KB object code size  0.8/0.7/[0.5]


