Circuit: *** SPICE deck for cell function_6_size1_1Cinv_400ps_tpdr_sim{lay} from library DDII_P1-Std_Cell_Library

Direct Newton iteration for .op point succeeded.

tpdr=1.39924e-009 FROM 2e-010 TO 1.59924e-009


Date: Wed Jul 08 17:25:46 2020
Total elapsed time: 0.311 seconds.

tnom = 27
temp = 27
method = modified trap
totiter = 5178
traniter = 5154
tranpoints = 1804
accept = 1587
rejected = 217
matrix size = 73
fillins = 2
solver = Normal
Matrix Compiler1: 8.67 KB object code size  1.9/1.1/[0.4]
Matrix Compiler2: 9.16 KB object code size  1.0/1.0/[0.4]


