Circuit: *** SPICE deck for cell function_6_size2_1Cinv_400ps_tpdr_sim{lay} from library DDII_P1-Std_Cell_Library

Direct Newton iteration for .op point succeeded.

tpdr=3.27228e-010 FROM 2e-010 TO 5.27228e-010


Date: Wed Jul 08 17:54:42 2020
Total elapsed time: 0.299 seconds.

tnom = 27
temp = 27
method = modified trap
totiter = 4895
traniter = 4869
tranpoints = 1942
accept = 1666
rejected = 276
matrix size = 73
fillins = 2
solver = Normal
Matrix Compiler1: 8.67 KB object code size  1.3/0.7/[0.4]
Matrix Compiler2: 9.16 KB object code size  0.8/0.8/[0.5]


