Circuit: *** SPICE deck for cell function_6_size2_1Cinv_400ps_tpdr_sim{lay} from library DDII_P1-Std_Cell_Library

Direct Newton iteration for .op point succeeded.

tpdr=7.78841e-010 FROM 2e-010 TO 9.78841e-010


Date: Wed Jul 08 17:56:10 2020
Total elapsed time: 0.323 seconds.

tnom = 27
temp = 27
method = modified trap
totiter = 5384
traniter = 5358
tranpoints = 1984
accept = 1717
rejected = 267
matrix size = 73
fillins = 2
solver = Normal
Matrix Compiler1: 8.67 KB object code size  1.4/0.7/[0.4]
Matrix Compiler2: 9.16 KB object code size  0.7/0.8/[0.4]


