Circuit: *** SPICE deck for cell function_6_size2_1Cinv_400ps_tpdr_sim{lay} from library DDII_P1-Std_Cell_Library

Direct Newton iteration for .op point succeeded.

tpdr=1.38773e-009 FROM 2e-010 TO 1.58773e-009


Date: Wed Jul 08 17:56:56 2020
Total elapsed time: 0.316 seconds.

tnom = 27
temp = 27
method = modified trap
totiter = 5338
traniter = 5312
tranpoints = 1956
accept = 1675
rejected = 281
matrix size = 73
fillins = 2
solver = Normal
Matrix Compiler1: 8.67 KB object code size  1.4/0.7/[0.4]
Matrix Compiler2: 9.16 KB object code size  0.7/0.7/[0.4]


