Circuit: *** SPICE deck for cell inverter_size1_1Cinv_400ps_sim{lay} from library DDII_P1-Std_Cell_Library

Direct Newton iteration for .op point succeeded.

tpdf=3.34294e-009 FROM 2e-010 TO 3.54294e-009
tpdr=1.12708e-009 FROM 2.06e-008 TO 2.17271e-008


Date: Wed Jul 08 20:49:44 2020
Total elapsed time: 0.095 seconds.

tnom = 27
temp = 27
method = modified trap
totiter = 3170
traniter = 3164
tranpoints = 1499
accept = 1378
rejected = 121
matrix size = 13
fillins = 0
solver = Normal
Matrix Compiler1: 960 bytes object code size  0.2/0.1/[0.1]
Matrix Compiler2: 1.31 KB object code size  0.1/0.2/[0.1]


