Circuit: *** SPICE deck for cell inverter_size1_1Cinv_400ps_sim{lay} from library DDII_P1-Std_Cell_Library

Direct Newton iteration for .op point succeeded.

tpdf=8.99315e-010 FROM 2e-010 TO 1.09932e-009
tpdr=3.20133e-010 FROM 2.06e-008 TO 2.09201e-008


Date: Wed Jul 08 20:49:23 2020
Total elapsed time: 0.091 seconds.

tnom = 27
temp = 27
method = modified trap
totiter = 3574
traniter = 3568
tranpoints = 1620
accept = 1442
rejected = 178
matrix size = 13
fillins = 0
solver = Normal
Matrix Compiler1: 960 bytes object code size  0.2/0.1/[0.1]
Matrix Compiler2: 1.31 KB object code size  0.2/0.1/[0.1]


