Circuit: *** SPICE deck for cell function_6_size2_1Cinv_800ps_tpdr_sim{lay} from library DDII_P1-Std_Cell_Library

Direct Newton iteration for .op point succeeded.

tpdr=5.42132e-010 FROM 4e-010 TO 9.42132e-010


Date: Wed Jul 08 18:07:32 2020
Total elapsed time: 0.359 seconds.

tnom = 27
temp = 27
method = modified trap
totiter = 5163
traniter = 5137
tranpoints = 1885
accept = 1645
rejected = 240
matrix size = 73
fillins = 2
solver = Normal
Matrix Compiler1: 8.67 KB object code size  1.4/0.7/[0.4]
Matrix Compiler2: 9.16 KB object code size  0.7/0.7/[0.4]


