Circuit: *** SPICE deck for cell function_6_size2_1Cinv_800ps_tpdr_sim{lay} from library DDII_P1-Std_Cell_Library

Direct Newton iteration for .op point succeeded.

tpdr=8.18619e-010 FROM 4e-010 TO 1.21862e-009


Date: Wed Jul 08 18:09:58 2020
Total elapsed time: 0.319 seconds.

tnom = 27
temp = 27
method = modified trap
totiter = 5056
traniter = 5030
tranpoints = 1939
accept = 1677
rejected = 262
matrix size = 73
fillins = 2
solver = Normal
Matrix Compiler1: 8.67 KB object code size  1.4/0.7/[0.4]
Matrix Compiler2: 9.16 KB object code size  0.7/0.7/[0.4]


