Circuit: *** SPICE deck for cell function_6_size2_1Cinv_800ps_tpdr_sim{lay} from library DDII_P1-Std_Cell_Library

Direct Newton iteration for .op point succeeded.

tpdr=1.41484e-009 FROM 4e-010 TO 1.81484e-009


Date: Wed Jul 08 18:01:08 2020
Total elapsed time: 0.315 seconds.

tnom = 27
temp = 27
method = modified trap
totiter = 5235
traniter = 5209
tranpoints = 1745
accept = 1519
rejected = 226
matrix size = 73
fillins = 2
solver = Normal
Matrix Compiler1: 8.67 KB object code size  1.4/0.8/[0.4]
Matrix Compiler2: 9.16 KB object code size  0.7/0.8/[0.4]


