Circuit: *** SPICE deck for cell function_4_size1_8Cinv_0ps_tpdf_sim{lay} from library DDII_P1-Std_Cell_Library

Limiting rise time of source vx to 2e-009
Limiting fall time of source vx to 2e-009
Direct Newton iteration for .op point succeeded.

tpdf=2.78472e-009 FROM 1e-009 TO 3.78472e-009


Date: Wed Jul 08 22:29:26 2020
Total elapsed time: 0.189 seconds.

tnom = 27
temp = 27
method = modified trap
totiter = 4246
traniter = 4229
tranpoints = 1625
accept = 1445
rejected = 180
matrix size = 46
fillins = 0
solver = Normal
Matrix Compiler1: 4.92 KB object code size  0.8/0.4/[0.2]
Matrix Compiler2: 5.43 KB object code size  0.4/0.4/[0.3]


