Circuit: *** SPICE deck for cell function_4_size1_1Cinv_100ps_tpdf_sim{lay} from library DDII_P1-Std_Cell_Library

Direct Newton iteration for .op point succeeded.

tpdf=4.03291e-010 FROM 5e-011 TO 4.53291e-010


Date: Wed Jul 08 22:30:47 2020
Total elapsed time: 0.193 seconds.

tnom = 27
temp = 27
method = modified trap
totiter = 4754
traniter = 4737
tranpoints = 1857
accept = 1618
rejected = 239
matrix size = 46
fillins = 0
solver = Normal
Matrix Compiler1: 4.92 KB object code size  0.8/0.4/[0.2]
Matrix Compiler2: 5.43 KB object code size  0.4/0.5/[0.2]


