Circuit: *** SPICE deck for cell function_4_size1_4Cinv_800ps_tpdf_sim{lay} from library DDII_P1-Std_Cell_Library

Direct Newton iteration for .op point succeeded.

tpdf=1.41624e-009 FROM 4e-010 TO 1.81624e-009


Date: Wed Jul 08 22:32:25 2020
Total elapsed time: 0.190 seconds.

tnom = 27
temp = 27
method = modified trap
totiter = 4353
traniter = 4336
tranpoints = 1589
accept = 1415
rejected = 174
matrix size = 46
fillins = 0
solver = Normal
Matrix Compiler1: 4.92 KB object code size  0.8/0.4/[0.2]
Matrix Compiler2: 5.43 KB object code size  0.4/0.5/[0.3]


