Circuit: *** SPICE deck for cell function_4_size1_4Cinv_100ps_tpdf_sim{lay} from library DDII_P1-Std_Cell_Library

Direct Newton iteration for .op point succeeded.

tpdf=1.33595e-009 FROM 5e-011 TO 1.38595e-009


Date: Wed Jul 08 22:30:12 2020
Total elapsed time: 0.188 seconds.

tnom = 27
temp = 27
method = modified trap
totiter = 4266
traniter = 4249
tranpoints = 1701
accept = 1501
rejected = 200
matrix size = 46
fillins = 0
solver = Normal
Matrix Compiler1: 4.92 KB object code size  0.8/0.4/[0.2]
Matrix Compiler2: 5.43 KB object code size  0.4/0.5/[0.3]


